Sunplus u'nSP Assember - Ver. 1.3.0 (Build:2)
              Listing File Has Been Relocated
0000804B                    	.code
                            	//tiny3.BM_
                            	//width=8(1byte)		eight=1143
                            	.public		tiny3
                            	tiny3:		
                            	//	.dw     0x0000,0x0000,0x0000,0x00ff,
0000804B FF 00 00 00        		.dw     0x00ff,0x0000,0x0000,0xff00
         00 00 00 FF
0000804F 00 F4 00 FF        		.dw     0xf400,0xff00,0xc000,0xc000,0xff00,0x085e,0xe85e,0xe848
         00 C0 00 C0
         00 FF 5E 08
         5E E8 48 E8
00008057 FF 00 24 00        		.dw     0x00ff,0x0024,0x54fe,0x5448,0x00ff,0x0060,0x9066,0x186c
         FE 54 48 54
         FF 00 60 00
         66 90 6C 18
0000805F 0C 92 00 FF        		.dw     0x920c,0xff00,0x0c6a,0x9a6c,0x0c12,0xff00,0xc000,0xff00
         6A 0C 6C 9A
         12 0C 00 FF
         00 C0 00 FF
00008067 82 7C FF 00        		.dw     0x7c82,0x00ff,0x0082,0x7c00,0xff00,0x50e0,0x5000,0xff00
         82 00 00 7C
         00 FF E0 50
         00 50 00 FF
0000806F 10 10 10 7C        		.dw     0x1010,0x7c10,0x1000,0xff00,0x020c,0x00ff,0x0010,0x1010
         00 10 00 FF
         0C 02 FF 00
         10 00 10 10
00008077 FF 00 02 00        		.dw     0x00ff,0x0002,0x00ff,0x0002,0x0c30,0xc0ff,0x007c,0x8282
         FF 00 02 00
         30 0C FF C0
         7C 00 82 82
0000807F 00 7C 00 FF        		.dw     0x7c00,0xff00,0x2040,0xfe00,0x00ff,0x0046,0x8a92,0x6200
         40 20 00 FE
         FF 00 46 00
         92 8A 00 62
00008087 00 FF 92 44        		.dw     0xff00,0x4492,0x926c,0x00ff,0x001c,0x64fe,0x0400,0xff00
         6C 92 FF 00
         1C 00 FE 64
         00 04 00 FF
0000808F A2 E4 9C A2        		.dw     0xe4a2,0xa29c,0x00ff,0x007c,0x9292,0x4c00,0xff00,0x809e
         FF 00 7C 00
         92 92 00 4C
         00 FF 9E 80
00008097 C0 A0 FF 00        		.dw     0xa0c0,0x00ff,0x006c,0x9292,0x6c00,0xff00,0x6492,0x927c
         6C 00 92 92
         00 6C 00 FF
         92 64 7C 92
0000809F FF 00 24 00        		.dw     0x00ff,0x0024,0x00ff,0x0002,0x2400,0xff00,0x1028,0x2844
         FF 00 02 00
         00 24 00 FF
         28 10 44 28
000080A7 00 FF 28 28        		.dw     0xff00,0x2828,0x2828,0x00ff,0x0044,0x2828,0x10ff,0x0040
         28 28 FF 00
         44 00 28 28
         FF 10 40 00
000080AF A0 9A 00 40        		.dw     0x9aa0,0x4000,0xff00,0x3844,0xb2ca,0xcaba,0x4a34,0x00ff
         00 FF 44 38
         CA B2 BA CA
         34 4A FF 00
000080B7 06 00 88 78        		.dw     0x0006,0x7888,0x7806,0x00ff,0x00fe,0x9292,0x926c,0x00ff
         06 78 FF 00
         FE 00 92 92
         6C 92 FF 00
000080BF 38 00 82 44        		.dw     0x0038,0x4482,0x8282,0x4400,0xff00,0xfe82,0x8282,0x7c00
         82 82 00 44
         00 FF 82 FE
         82 82 00 7C
000080C7 00 FF 92 FE        		.dw     0xff00,0xfe92,0x9292,0x9200,0xff00,0xfe90,0x9090,0x80ff
         92 92 00 92
         00 FF 90 FE
         90 90 FF 80
000080CF 38 00 82 44        		.dw     0x0038,0x4482,0x9292,0x5c00,0xff00,0xfe10,0x1010,0xfe00
         92 92 00 5C
         00 FF 10 FE
         10 10 00 FE
000080D7 00 FF 00 FE        		.dw     0xff00,0xfe00,0xff00,0x0c02,0x02fc,0x00ff,0x00fe,0x1030
         00 FF 02 0C
         FC 02 FF 00
         FE 00 30 10
000080DF 82 4C 00 FF        		.dw     0x4c82,0xff00,0xfe02,0x0202,0xff00,0xfe60,0x1c02,0x1c60
         02 FE 02 02
         00 FF 60 FE
         02 1C 60 1C
000080E7 00 FE 00 FF        		.dw     0xfe00,0xff00,0xfe40,0x3018,0x04fe,0x00ff,0x0038,0x4482
         40 FE 18 30
         FE 04 FF 00
         38 00 82 44
000080EF 44 82 00 38        		.dw     0x8244,0x3800,0xff00,0xfe88,0x8888,0x7000,0xff00,0x3844
         00 FF 88 FE
         88 88 00 70
         00 FF 44 38
000080F7 86 82 3A 44        		.dw     0x8286,0x443a,0x02ff,0x00fe,0x9090,0x9864,0x02ff,0x0064
         FF 02 FE 00
         90 90 64 98
         FF 02 64 00
000080FF 92 92 4C 92        		.dw     0x9292,0x924c,0x00ff,0x0080,0x80fe,0x8080,0xff00,0xf804
         FF 00 80 00
         FE 80 80 80
         00 FF 04 F8
00008107 02 02 F8 04        		.dw     0x0202,0x04f8,0x00ff,0x00c0,0x3c02,0x3cc0,0xff00,0xfc02
         FF 00 C0 00
         02 3C C0 3C
         00 FF 02 FC
0000810F 80 7C 02 7C        		.dw     0x7c80,0x7c02,0xfc00,0xff00,0x826c,0x1010,0x6c82,0xff00
         00 FC 00 FF
         6C 82 10 10
         82 6C 00 FF
00008117 60 80 60 1E        		.dw     0x8060,0x1e60,0x80ff,0x0086,0x8a92,0xa2c2,0x00ff,0x00fe
         FF 80 86 00
         92 8A C2 A2
         FF 00 FE 00
0000811F 00 82 00 FF        		.dw     0x8200,0xff00,0xc030,0x0c02,0xff00,0x82fe,0x00ff,0x0060
         30 C0 02 0C
         00 FF FE 82
         FF 00 60 00
00008127 60 80 FF 00        		.dw     0x8060,0x00ff,0x0002,0x0202,0x0202,0xff00,0x8040,0x00ff
         02 00 02 02
         02 02 00 FF
         40 80 FF 00
0000812F 4C 00 52 52        		.dw     0x004c,0x5252,0x3e00,0xff00,0xfe22,0x221c,0x00ff,0x001c
         00 3E 00 FF
         22 FE 1C 22
         FF 00 1C 00
00008137 22 22 00 14        		.dw     0x2222,0x1400,0xff00,0x1c22,0x22fe,0x00ff,0x001c,0x2a2a
         00 FF 22 1C
         FE 22 FF 00
         1C 00 2A 2A
0000813F 00 1A 00 FF        		.dw     0x1a00,0xff00,0x107e,0x9000,0xff00,0x122a,0x2a3c,0x00ff
         7E 10 00 90
         00 FF 2A 12
         3C 2A FF 00
00008147 FE 00 20 20        		.dw     0x00fe,0x2020,0x1e00,0xff00,0xbe00,0xff00,0x02bc,0x00ff
         00 1E 00 FF
         00 BE 00 FF
         BC 02 FF 00
0000814F FE 00 14 08        		.dw     0x00fe,0x0814,0x2200,0xff00,0xfe00,0xff00,0x3e10,0x203e
         00 22 00 FF
         00 FE 00 FF
         10 3E 3E 20
00008157 20 10 00 3E        		.dw     0x1020,0x3e00,0xff00,0x3e10,0x201e,0x00ff,0x001c,0x2222
         00 FF 10 3E
         1E 20 FF 00
         1C 00 22 22
0000815F 00 1C 00 FF        		.dw     0x1c00,0xff00,0x7e48,0x4830,0x00ff,0x0030,0x4848,0x7e00
         48 7E 30 48
         FF 00 30 00
         48 48 00 7E
00008167 00 FF 10 3E        		.dw     0xff00,0x3e10,0x2000,0xff00,0x122a,0x2a24,0x00ff,0x0020
         00 20 00 FF
         2A 12 24 2A
         FF 00 20 00
0000816F 22 FC FF 00        		.dw     0xfc22,0x00ff,0x003c,0x0204,0x3e00,0xff00,0x300c,0x020c
         3C 00 04 02
         00 3E 00 FF
         0C 30 0C 02
00008177 FF 30 3C 00        		.dw     0x30ff,0x003c,0x021c,0x201c,0x023c,0x00ff,0x0022,0x1408
         1C 02 1C 20
         3C 02 FF 00
         22 00 08 14
0000817F 22 14 00 FF        		.dw     0x1422,0xff00,0x203a,0x0a3c,0x20ff,0x0022,0x262a,0x3200
         3A 20 3C 0A
         FF 20 22 00
         2A 26 00 32
00008187 00 FF EE 10        		.dw     0xff00,0x10ee,0x8200,0xff00,0xfe00,0xff00,0x82ee,0x1000
         00 82 00 FF
         00 FE 00 FF
         EE 82 00 10
0000818F 00 FF 40 60        		.dw     0xff00,0x6040,0x6020,0x4000,0xff00,0x7c82,0xaa8a,0xaa82
         20 60 00 40
         00 FF 82 7C
         8A AA 82 AA
00008197 00 7C 00 FF        		.dw     0x7c00,0xff00,0x7e08,0x0478,0x0400,0xff00,0x127c,0x9242
         08 7E 78 04
         00 04 00 FF
         7C 12 42 92
0000819F 00 04 00 FF        		.dw     0x0400,0xff00,0x9454,0x3e54,0x9400,0xff00,0x3844,0xfe44
         54 94 54 3E
         00 94 00 FF
         44 38 44 FE
000081A7 00 28 00 FF        		.dw     0x2800,0xff00,0x4c92,0x7c92,0x6400,0x00ff,0x0070,0x8a8c
         92 4C 92 7C
         00 64 FF 00
         70 00 8C 8A
000081AF 00 50 00 FF        		.dw     0x5000,0xff00,0x3040,0x8080,0x4030,0x00ff,0x00bc,0x00ff
         40 30 80 80
         30 40 FF 00
         BC 00 FF 00
000081B7 04 00 B2 0A        		.dw     0x0004,0x0ab2,0x0400,0xff00,0x40a0,0x4000,0x00ff,0x0000
         00 04 00 FF
         A0 40 00 40
         FF 00 00 00
000081BF 00 FF 00 00        		.dw     0xff00,0x0000,0x0000,0xff00,0x0000,0x0000,0x00ff,0x0000
         00 00 00 FF
         00 00 00 00
         FF 00 00 00
000081C7 00 00 00 00        		.dw     0x0000,0x0000,0xff00,0x0000,0x0000,0x00ff,0x0000,0x0000
         00 FF 00 00
         00 00 FF 00
         00 00 00 00
000081CF 00 00 00 FF        		.dw     0x0000,0xff00,0x26aa,0xaa5e,0x00ff,0x0026,0x6aaa,0x9e00
         AA 26 5E AA
         FF 00 26 00
         AA 6A 00 9E
000081D7 00 FF AA 66        		.dw     0xff00,0x66aa,0xaa5e,0x00ff,0x00a6,0x2a2a,0x9e00,0xff00
         5E AA FF 00
         A6 00 2A 2A
         00 9E 00 FF
000081DF 52 0C 5C B2        		.dw     0x0c52,0xb25c,0x02ff,0x0002,0x9ca4,0x5c02,0x00ff,0x0002
         FF 02 02 00
         A4 9C 02 5C
         FF 00 02 00
000081E7 A4 5C 02 9C        		.dw     0x5ca4,0x9c02,0x00ff,0x0042,0x9ca4,0x9c42,0x00ff,0x0042
         FF 00 42 00
         A4 9C 42 9C
         FF 00 42 00
000081EF 24 1C 42 1C        		.dw     0x1c24,0x1c42,0x00ff,0x0002,0x5ca4,0x5c02,0x00ff,0x001c
         FF 00 02 00
         A4 5C 02 5C
         FF 00 1C 00
000081F7 AA AA 00 5A        		.dw     0xaaaa,0x5a00,0xff00,0x1c6a,0xaa9a,0x00ff,0x005c,0xaaaa
         00 FF 6A 1C
         9A AA FF 00
         5C 00 AA AA
000081FF 00 5A 00 FF        		.dw     0x5a00,0xff00,0x9c2a,0x2a9a,0x00ff,0x003e,0xaaea,0x2a2a
         2A 9C 9A 2A
         FF 00 3E 00
         EA AA 2A 2A
00008207 FF 00 3E 00        		.dw     0x00ff,0x003e,0x2aea,0xaa2a,0x00ff,0x003e,0x6aaa,0x6a2a
         EA 2A 2A AA
         FF 00 3E 00
         AA 6A 2A 6A
0000820F FF 00 3E 00        		.dw     0x00ff,0x003e,0xaa2a,0xaa2a,0x00ff,0x0080,0x9e40,0x00ff
         2A AA 2A AA
         FF 00 80 00
         40 9E FF 00
00008217 40 00 80 9E        		.dw     0x0040,0x9e80,0x00ff,0x0040,0x9e40,0x00ff,0x0040,0x1e40
         FF 00 40 00
         40 9E FF 00
         40 00 40 1E
0000821F FF 00 A2 00        		.dw     0x00ff,0x00a2,0xbe62,0x00ff,0x0062,0xbea2,0x00ff,0x0040
         62 BE FF 00
         62 00 A2 BE
         FF 00 40 00
00008227 BE A2 40 A2        		.dw     0xa2be,0xa240,0x00ff,0x00a2,0x3ea2,0x00ff,0x009c,0xa262
         FF 00 A2 00
         A2 3E FF 00
         9C 00 62 A2
0000822F 00 1C 00 FF        		.dw     0x1c00,0xff00,0x1c62,0xa29c,0x00ff,0x005c,0xa2a2,0x5c00
         62 1C 9C A2
         FF 00 5C 00
         A2 A2 00 5C
00008237 00 FF 22 9C        		.dw     0xff00,0x9c22,0x229c,0x00ff,0x001c,0x22a2,0xe222,0x1c00
         9C 22 FF 00
         1C 00 A2 22
         22 E2 00 1C
0000823F 00 FF 22 1C        		.dw     0xff00,0x1c22,0xe2a2,0x221c,0x00ff,0x001c,0x62a2,0xa262
         A2 E2 1C 22
         FF 00 1C 00
         A2 62 62 A2
00008247 00 1C 00 FF        		.dw     0x1c00,0xff00,0x1ca2,0x2222,0xa21c,0x00ff,0x00bc,0x8244
         A2 1C 22 22
         1C A2 FF 00
         BC 00 44 82
0000824F 00 3E 00 FF        		.dw     0x3e00,0xff00,0x3c42,0x84be,0x00ff,0x0040,0xbc82,0x84be
         42 3C BE 84
         FF 00 40 00
         82 BC BE 84
00008257 00 40 00 FF        		.dw     0x4000,0xff00,0xbc02,0x04be,0x00ff,0x003c,0x8282,0x4202
         02 BC BE 04
         FF 00 3C 00
         82 82 02 42
0000825F 00 3C 00 FF        		.dw     0x3c00,0xff00,0x3c02,0x4282,0x823c,0x00ff,0x003c,0x4282
         02 3C 82 42
         3C 82 FF 00
         3C 00 82 42
00008267 3C 42 FF 00        		.dw     0x423c,0x00ff,0x00bc,0x0202,0x0202,0xbc00,0xff00,0x203a
         BC 00 02 02
         02 02 00 BC
         00 FF 3A 20
0000826F BC 4A FF A0        		.dw     0x4abc,0xa0ff,0x0020,0x104e,0x90a0,0xff00,0x7c8a,0xa850
         20 00 4E 10
         A0 90 00 FF
         8A 7C 50 A8
00008277 FF 00 BE 00        		.dw     0x00ff,0x00be,0x50a0,0x5e00,0xff00,0x5ca2,0x629c,0x00ff
         A0 50 00 5E
         00 FF A2 5C
         9C 62 FF 00
0000827F 66 00 6A AA        		.dw     0x0066,0xaa6a,0x9e00,0xff00
         00 9E 00 FF
                            	
                            	
                            	//Sunnorth code.;Written by: Bai-yawei.;large1.BM_;width=16(2byte)		height=1640
                            	.public		large1
                            	large1:
                            	//.dw	0xfff8,0x0000,
00008283 F8 FF 00 00        	.dw	0xfff8,0x0000,0x0000,0x0000,0x0000,0x0000
         00 00 00 00
         00 00 00 00
00008289 00 00 F8 FF        	.dw	0x0000,0xfff8,0x0000,0x0000,0xfec0,0xfec0,0x0000,0xfff8
         00 00 00 00
         C0 FE C0 FE
         00 00 F8 FF
00008291 00 00 00 F0        	.dw	0x0000,0xf000,0xf000,0x0000,0x0000,0xf000,0xf000,0x0000
         00 F0 00 00
         00 00 00 F0
         00 F0 00 00
00008299 F8 FF 00 00        	.dw	0xfff8,0x0000,0x0100,0x27c0,0xffc0,0xf900,0x27c0,0xffc0
         00 01 C0 27
         C0 FF 00 F9
         C0 27 C0 FF
000082A1 00 F9 00 20        	.dw	0xf900,0x2000,0x0000,0xfff8,0x0000,0x3880,0x7cc0,0xc460
         00 00 F8 FF
         00 00 80 38
         C0 7C 60 C4
000082A9 60 C4 C0 77        	.dw	0xc460,0x77c0,0x3380,0x0000,0xfff8,0x0000,0x7040,0xf8c0
         80 33 00 00
         F8 FF 00 00
         40 70 C0 F8
000082B1 80 89 00 FB        	.dw	0x8980,0xfb00,0x7600,0x0c00,0x1b80,0x37c0,0x6440,0xc7c0
         00 76 00 0C
         80 1B C0 37
         40 64 C0 C7
000082B9 80 83 00 00        	.dw	0x8380,0x0000,0xfff8,0x0000,0x0380,0x77c0,0xfc40,0x8e40
         F8 FF 00 00
         80 03 C0 77
         40 FC 40 8E
000082C1 C0 FB C0 71        	.dw	0xfbc0,0x71c0,0x0340,0x0000,0xfff8,0x0000,0x0000,0xf000
         40 03 00 00
         F8 FF 00 00
         00 00 00 F0
000082C9 00 F0 00 00        	.dw	0xf000,0x0000,0xfff8,0x0000,0x7ff0,0xfdf8,0x8008,0x0000
         F8 FF 00 00
         F0 7F F8 FD
         08 80 00 00
000082D1 F8 FF 00 00        	.dw	0xfff8,0x0000,0x8008,0xfdf8,0x7ff0,0x0000,0xfff8,0x0000
         08 80 F8 FD
         F0 7F 00 00
         F8 FF 00 00
000082D9 00 40 00 58        	.dw	0x4000,0x5800,0xf000,0xf000,0x5800,0x4000,0x0000,0xfff8
         00 F0 00 F0
         00 58 00 40
         00 00 F8 FF
000082E1 00 00 00 04        	.dw	0x0000,0x0400,0x0400,0x3f80,0x3f80,0x0400,0x0400,0x0000
         00 04 80 3F
         80 3F 00 04
         00 04 00 00
000082E9 F8 FF 00 00        	.dw	0xfff8,0x0000,0x0020,0x00e0,0x00c0,0x0000,0xfff8,0x0000
         20 00 E0 00
         C0 00 00 00
         F8 FF 00 00
000082F1 00 04 00 04        	.dw	0x0400,0x0400,0x0400,0x0400,0x0000,0xfff8,0x0000,0x00c0
         00 04 00 04
         00 00 F8 FF
         00 00 C0 00
000082F9 C0 00 00 00        	.dw	0x00c0,0x0000,0xfff8,0x0000,0x00f0,0x0ff0,0xff00,0xf000
         F8 FF 00 00
         F0 00 F0 0F
         00 FF 00 F0
00008301 00 00 F8 FF        	.dw	0x0000,0xfff8,0x0000,0x7f80,0xffc0,0x8040,0x8040,0xffc0
         00 00 80 7F
         C0 FF 40 80
         40 80 C0 FF
00008309 80 7F 00 00        	.dw	0x7f80,0x0000,0xfff8,0x0000,0x0000,0x4000,0x4000,0xffc0
         F8 FF 00 00
         00 00 00 40
         00 40 C0 FF
00008311 C0 FF 00 00        	.dw	0xffc0,0x0000,0x0000,0xfff8,0x0000,0x61c0,0xe3c0,0x8640
         00 00 F8 FF
         00 00 C0 61
         C0 E3 40 86
00008319 40 8C 40 F8        	.dw	0x8c40,0xf840,0x7040,0x0000,0xfff8,0x0000,0x4080,0xc0c0
         40 70 00 00
         F8 FF 00 00
         80 40 C0 C0
00008321 40 88 40 88        	.dw	0x8840,0x8840,0xffc0,0x7780,0x0000,0xfff8,0x0000,0x0300
         C0 FF 80 77
         00 00 F8 FF
         00 00 00 03
00008329 00 0F 00 3D        	.dw	0x0f00,0x3d00,0x7100,0xffc0,0xffc0,0x0000,0xfff8,0x0000
         00 71 C0 FF
         C0 FF 00 00
         F8 FF 00 00
00008331 80 FC C0 FC        	.dw	0xfc80,0xfcc0,0x8840,0x8840,0x8fc0,0x8780,0x0000,0xfff8
         40 88 40 88
         C0 8F 80 87
         00 00 F8 FF
00008339 00 00 80 7F        	.dw	0x0000,0x7f80,0xffc0,0x8840,0x8840,0xcfc0,0x4780,0x0000
         C0 FF 40 88
         40 88 C0 CF
         80 47 00 00
00008341 F8 FF 00 00        	.dw	0xfff8,0x0000,0x8000,0x81c0,0x8fc0,0xbe00,0xf000,0xc000
         00 80 C0 81
         C0 8F 00 BE
         00 F0 00 C0
00008349 00 00 F8 FF        	.dw	0x0000,0xfff8,0x0000,0x7780,0xffc0,0x8840,0x8840,0xffc0
         00 00 80 77
         C0 FF 40 88
         40 88 C0 FF
00008351 80 77 00 00        	.dw	0x7780,0x0000,0xfff8,0x0000,0x7880,0xfcc0,0x8440,0x8440
         F8 FF 00 00
         80 78 C0 FC
         40 84 40 84
00008359 C0 FF 80 7F        	.dw	0xffc0,0x7f80,0x0000,0xfff8,0x0000,0x30c0,0x30c0,0x0000
         00 00 F8 FF
         00 00 C0 30
         C0 30 00 00
00008361 F8 FF 00 00        	.dw	0xfff8,0x0000,0x0020,0x30e0,0x30c0,0x0000,0xfff8,0x0000
         20 00 E0 30
         C0 30 00 00
         F8 FF 00 00
00008369 00 04 00 0E        	.dw	0x0400,0x0e00,0x1b00,0x3180,0x60c0,0x4040,0x0000,0xfff8
         00 1B 80 31
         C0 60 40 40
         00 00 F8 FF
00008371 00 00 00 12        	.dw	0x0000,0x1200,0x1200,0x1200,0x1200,0x1200,0x1200,0x0000
         00 12 00 12
         00 12 00 12
         00 12 00 00
00008379 F8 FF 00 00        	.dw	0xfff8,0x0000,0x4040,0x60c0,0x3180,0x1b00,0x0e00,0x0400
         40 40 C0 60
         80 31 00 1B
         00 0E 00 04
00008381 00 00 F8 FF        	.dw	0x0000,0xfff8,0x0000,0x6000,0xe000,0x86c0,0x8ec0,0xf800
         00 00 00 60
         00 E0 C0 86
         C0 8E 00 F8
00008389 00 70 00 00        	.dw	0x7000,0x0000,0xfff8,0x0000,0x0f80,0x3fe0,0x7070,0x4390
         F8 FF 00 00
         80 0F E0 3F
         70 70 90 43
00008391 D8 CF 48 9C        	.dw	0xcfd8,0x9c48,0x9188,0xdfc8,0x4e58,0x7050,0x3fd0,0x0f80
         88 91 C8 DF
         58 4E 50 70
         D0 3F 80 0F
00008399 00 00 F8 FF        	.dw	0x0000,0xfff8,0x0000,0x00c0,0x07c0,0x3f00,0xf100,0xf100
         00 00 C0 00
         C0 07 00 3F
         00 F1 00 F1
000083A1 00 3F C0 07        	.dw	0x3f00,0x07c0,0x00c0,0x0000,0xfff8,0x0000,0xffc0,0xffc0
         C0 00 00 00
         F8 FF 00 00
         C0 FF C0 FF
000083A9 40 88 40 88        	.dw	0x8840,0x8840,0x8840,0x8840,0xffc0,0x7780,0x0000,0xfff8
         40 88 40 88
         C0 FF 80 77
         00 00 F8 FF
000083B1 00 00 00 3F        	.dw	0x0000,0x3f00,0x7f80,0xc0c0,0x8040,0x8040,0xc0c0,0x6180
         80 7F C0 C0
         40 80 40 80
         C0 C0 80 61
000083B9 00 00 F8 FF        	.dw	0x0000,0xfff8,0x0000,0xffc0,0xffc0,0x8040,0x8040,0x8040
         00 00 C0 FF
         C0 FF 40 80
         40 80 40 80
000083C1 C0 C0 80 7F        	.dw	0xc0c0,0x7f80,0x3f00,0x0000,0xfff8,0x0000,0xffc0,0xffc0
         00 3F 00 00
         F8 FF 00 00
         C0 FF C0 FF
000083C9 40 88 40 88        	.dw	0x8840,0x8840,0x8840,0x8840,0x8040,0x0000,0xfff8,0x0000
         40 88 40 88
         40 80 00 00
         F8 FF 00 00
000083D1 C0 FF C0 FF        	.dw	0xffc0,0xffc0,0x8800,0x8800,0x8800,0x8800,0x8000,0x0000
         00 88 00 88
         00 88 00 88
         00 80 00 00
000083D9 F8 FF 00 00        	.dw	0xfff8,0x0000,0x3f00,0x7f80,0xc0c0,0x8040,0x8440,0x8440
         00 3F 80 7F
         C0 C0 40 80
         40 84 40 84
000083E1 80 C7 C0 67        	.dw	0xc780,0x67c0,0x0000,0xfff8,0x0000,0xffc0,0xffc0,0x0800
         00 00 F8 FF
         00 00 C0 FF
         C0 FF 00 08
000083E9 00 08 00 08        	.dw	0x0800,0x0800,0x0800,0xffc0,0xffc0,0x0000,0xfff8,0x0000
         00 08 C0 FF
         C0 FF 00 00
         F8 FF 00 00
000083F1 C0 FF C0 FF        	.dw	0xffc0,0xffc0,0x0000,0xfff8,0x0000,0x0180,0x01c0,0x0040
         00 00 F8 FF
         00 00 80 01
         C0 01 40 00
000083F9 40 00 C0 FF        	.dw	0x0040,0xffc0,0xff80,0x0000,0xfff8,0x0000,0xffc0,0xffc0
         80 FF 00 00
         F8 FF 00 00
         C0 FF C0 FF
00008401 00 1C 00 36        	.dw	0x1c00,0x3600,0x6300,0xc180,0x80c0,0x0040,0xfff8,0x0000
         00 63 80 C1
         C0 80 40 00
         F8 FF 00 00
00008409 C0 FF C0 FF        	.dw	0xffc0,0xffc0,0x0040,0x0040,0x0040,0x0040,0x0040,0xfff8
         40 00 40 00
         40 00 40 00
         40 00 F8 FF
00008411 00 00 C0 FF        	.dw	0x0000,0xffc0,0xffc0,0x3c00,0x0f00,0x03c0,0x03c0,0x0f00
         C0 FF 00 3C
         00 0F C0 03
         C0 03 00 0F
00008419 00 3C C0 FF        	.dw	0x3c00,0xffc0,0xffc0,0x0000,0xfff8,0x0000,0xffc0,0xffc0
         C0 FF 00 00
         F8 FF 00 00
         C0 FF C0 FF
00008421 00 70 00 3C        	.dw	0x7000,0x3c00,0x0f00,0x0380,0xffc0,0xffc0,0x0000,0xfff8
         00 0F 80 03
         C0 FF C0 FF
         00 00 F8 FF
00008429 00 00 00 3F        	.dw	0x0000,0x3f00,0x7f80,0xc0c0,0x8040,0x8040,0xc0c0,0x7f80
         80 7F C0 C0
         40 80 40 80
         C0 C0 80 7F
00008431 00 3F 00 00        	.dw	0x3f00,0x0000,0xfff8,0x0000,0xffc0,0xffc0,0x8400,0x8400
         F8 FF 00 00
         C0 FF C0 FF
         00 84 00 84
00008439 00 84 00 84        	.dw	0x8400,0x8400,0xfc00,0x7800,0x0000,0xfff8,0x0000,0x3f00
         00 FC 00 78
         00 00 F8 FF
         00 00 00 3F
00008441 80 7F C0 C0        	.dw	0x7f80,0xc0c0,0x8040,0x8140,0xc1c0,0x7fc0,0x3f40,0x0000
         40 80 40 81
         C0 C1 C0 7F
         40 3F 00 00
00008449 F8 FF 00 00        	.dw	0xfff8,0x0000,0xffc0,0xffc0,0x8400,0x8400,0x8400,0x8400
         C0 FF C0 FF
         00 84 00 84
         00 84 00 84
00008451 80 FF C0 7B        	.dw	0xff80,0x7bc0,0x0040,0xfff8,0x0000,0x7180,0xf9c0,0x8840
         40 00 F8 FF
         00 00 80 71
         C0 F9 40 88
00008459 40 8C 40 84        	.dw	0x8c40,0x8440,0xe7c0,0x6380,0x0000,0xfff8,0x0000,0x8000
         C0 E7 80 63
         00 00 F8 FF
         00 00 00 80
00008461 00 80 00 80        	.dw	0x8000,0x8000,0xffc0,0xffc0,0x8000,0x8000,0x8000,0x0000
         C0 FF C0 FF
         00 80 00 80
         00 80 00 00
00008469 F8 FF 00 00        	.dw	0xfff8,0x0000,0xff00,0xff80,0x00c0,0x0040,0x0040,0x00c0
         00 FF 80 FF
         C0 00 40 00
         40 00 C0 00
00008471 80 FF 00 FF        	.dw	0xff80,0xff00,0x0000,0xfff8,0x0000,0xc000,0xf800,0x3f00
         00 00 F8 FF
         00 00 00 C0
         00 F8 00 3F
00008479 C0 03 C0 03        	.dw	0x03c0,0x03c0,0x3f00,0xf800,0xc000,0x0000,0xfff8,0x0000
         00 3F 00 F8
         00 C0 00 00
         F8 FF 00 00
00008481 00 E0 00 F8        	.dw	0xe000,0xf800,0x1e00,0x07c0,0x03c0,0x1e00,0xf800,0xf800
         00 1E C0 07
         C0 03 00 1E
         00 F8 00 F8
00008489 00 1E C0 03        	.dw	0x1e00,0x03c0,0x07c0,0x1e00,0xf800,0xe000,0x0000,0xfff8
         C0 07 00 1E
         00 F8 00 E0
         00 00 F8 FF
00008491 00 00 C0 C0        	.dw	0x0000,0xc0c0,0xe1c0,0x3300,0x1e00,0x0c00,0x1e00,0x3300
         C0 E1 00 33
         00 1E 00 0C
         00 1E 00 33
00008499 C0 E1 C0 C0        	.dw	0xe1c0,0xc0c0,0x0000,0xfff8,0x0000,0xc000,0xe000,0x3000
         00 00 F8 FF
         00 00 00 C0
         00 E0 00 30
000084A1 00 18 C0 0F        	.dw	0x1800,0x0fc0,0x0fc0,0x1800,0x3000,0xe000,0xc000,0x0000
         C0 0F 00 18
         00 30 00 E0
         00 C0 00 00
000084A9 F8 FF 00 00        	.dw	0xfff8,0x0000,0x80c0,0x81c0,0x8340,0x8640,0x8c40,0x9840
         C0 80 C0 81
         40 83 40 86
         40 8C 40 98
000084B1 40 B0 40 E0        	.dw	0xb040,0xe040,0xc040,0x0000,0xfff8,0x0000,0xfdf8,0xfdf8
         40 C0 00 00
         F8 FF 00 00
         F8 FD F8 FD
000084B9 08 80 00 00        	.dw	0x8008,0x0000,0xfff8,0x0000,0xf000,0xff00,0x0ff0,0x00f0
         F8 FF 00 00
         00 F0 00 FF
         F0 0F F0 00
000084C1 00 00 F8 FF        	.dw	0x0000,0xfff8,0x0000,0x8008,0xfdf8,0xfdf8,0x0000,0xfff8
         00 00 08 80
         F8 FD F8 FD
         00 00 F8 FF
000084C9 00 00 00 20        	.dw	0x0000,0x2000,0x6000,0xc000,0x6000,0x2000,0x0000,0xfff8
         00 60 00 C0
         00 60 00 20
         00 00 F8 FF
000084D1 00 00 08 00        	.dw	0x0000,0x0008,0x0008,0x0008,0x0008,0x0008,0x0008,0x0008
         08 00 08 00
         08 00 08 00
         08 00 08 00
000084D9 08 00 F8 FF        	.dw	0x0008,0xfff8,0x0000,0x8000,0xc000,0x4000,0x0000,0xfff8
         00 00 00 80
         00 C0 00 40
         00 00 F8 FF
000084E1 00 00 80 09        	.dw	0x0000,0x0980,0x1bc0,0x1640,0x1440,0x1fc0,0x0fc0,0x0000
         C0 1B 40 16
         40 14 C0 1F
         C0 0F 00 00
000084E9 F8 FF 00 00        	.dw	0xfff8,0x0000,0xffc0,0xffc0,0x1040,0x1040,0x1fc0,0x0f80
         C0 FF C0 FF
         40 10 40 10
         C0 1F 80 0F
000084F1 00 00 F8 FF        	.dw	0x0000,0xfff8,0x0000,0x0f80,0x1fc0,0x1040,0x1040,0x18c0
         00 00 80 0F
         C0 1F 40 10
         40 10 C0 18
000084F9 80 08 00 00        	.dw	0x0880,0x0000,0xfff8,0x0000,0x0f80,0x1fc0,0x1040,0x1040
         F8 FF 00 00
         80 0F C0 1F
         40 10 40 10
00008501 C0 FF C0 FF        	.dw	0xffc0,0xffc0,0x0000,0xfff8,0x0000,0x0f80,0x1fc0,0x1440
         00 00 F8 FF
         00 00 80 0F
         C0 1F 40 14
00008509 40 14 C0 1C        	.dw	0x1440,0x1cc0,0x0c80,0x0000,0xfff8,0x0000,0x1000,0x7fc0
         80 0C 00 00
         F8 FF 00 00
         00 10 C0 7F
00008511 C0 FF 00 90        	.dw	0xffc0,0x9000,0x0000,0xfff8,0x0000,0x0f90,0x1fd8,0x1048
         00 00 F8 FF
         00 00 90 0F
         D8 1F 48 10
00008519 48 10 F8 1F        	.dw	0x1048,0x1ff8,0x1ff0,0x0000,0xfff8,0x0000,0xffc0,0xffc0
         F0 1F 00 00
         F8 FF 00 00
         C0 FF C0 FF
00008521 00 10 00 10        	.dw	0x1000,0x1000,0x1fc0,0x0fc0,0x0000,0xfff8,0x0000,0xdfc0
         C0 1F C0 0F
         00 00 F8 FF
         00 00 C0 DF
00008529 C0 DF 00 00        	.dw	0xdfc0,0x0000,0xfff8,0x0000,0x0008,0xdff8,0xdff0,0x0000
         F8 FF 00 00
         08 00 F8 DF
         F0 DF 00 00
00008531 F8 FF 00 00        	.dw	0xfff8,0x0000,0xffc0,0xffc0,0x0700,0x0d80,0x18c0,0x1040
         C0 FF C0 FF
         00 07 80 0D
         C0 18 40 10
00008539 00 00 F8 FF        	.dw	0x0000,0xfff8,0x0000,0xffc0,0xffc0,0x0000,0xfff8,0x0000
         00 00 C0 FF
         C0 FF 00 00
         F8 FF 00 00
00008541 C0 1F C0 1F        	.dw	0x1fc0,0x1fc0,0x1000,0x1000,0x1fc0,0x1fc0,0x1000,0x1000
         00 10 00 10
         C0 1F C0 1F
         00 10 00 10
00008549 C0 1F C0 0F        	.dw	0x1fc0,0x0fc0,0x0000,0xfff8,0x0000,0x1fc0,0x1fc0,0x1000
         00 00 F8 FF
         00 00 C0 1F
         C0 1F 00 10
00008551 00 10 C0 1F        	.dw	0x1000,0x1fc0,0x0fc0,0x0000,0xfff8,0x0000,0x0f80,0x1fc0
         C0 0F 00 00
         F8 FF 00 00
         80 0F C0 1F
00008559 40 10 40 10        	.dw	0x1040,0x1040,0x1fc0,0x0f80,0x0000,0xfff8,0x0000,0x1ff8
         C0 1F 80 0F
         00 00 F8 FF
         00 00 F8 1F
00008561 F8 1F 40 10        	.dw	0x1ff8,0x1040,0x1040,0x1fc0,0x0f80,0x0000,0xfff8,0x0000
         40 10 C0 1F
         80 0F 00 00
         F8 FF 00 00
00008569 80 0F C0 1F        	.dw	0x0f80,0x1fc0,0x1040,0x1040,0x1ff8,0x1ff8,0x0000,0xfff8
         40 10 40 10
         F8 1F F8 1F
         00 00 F8 FF
00008571 00 00 C0 1F        	.dw	0x0000,0x1fc0,0x1fc0,0x1800,0x1000,0x0000,0xfff8,0x0000
         C0 1F 00 18
         00 10 00 00
         F8 FF 00 00
00008579 80 0C C0 1E        	.dw	0x0c80,0x1ec0,0x1240,0x1240,0x1bc0,0x0980,0x0000,0xfff8
         40 12 40 12
         C0 1B 80 09
         00 00 F8 FF
00008581 00 00 00 10        	.dw	0x0000,0x1000,0x7f80,0x7fc0,0x1040,0x0000,0xfff8,0x0000
         80 7F C0 7F
         40 10 00 00
         F8 FF 00 00
00008589 80 1F C0 1F        	.dw	0x1f80,0x1fc0,0x0040,0x0040,0x1fc0,0x1fc0,0x0000,0xfff8
         40 00 40 00
         C0 1F C0 1F
         00 00 F8 FF
00008591 00 00 00 18        	.dw	0x0000,0x1800,0x1e00,0x0700,0x01c0,0x01c0,0x0700,0x1e00
         00 1E 00 07
         C0 01 C0 01
         00 07 00 1E
00008599 00 18 00 00        	.dw	0x1800,0x0000,0xfff8,0x0000,0x1800,0x1f00,0x07c0,0x01c0
         F8 FF 00 00
         00 18 00 1F
         C0 07 C0 01
000085A1 00 0F 00 0F        	.dw	0x0f00,0x0f00,0x01c0,0x07c0,0x1f00,0x1800,0x0000,0xfff8
         C0 01 C0 07
         00 1F 00 18
         00 00 F8 FF
000085A9 00 00 40 10        	.dw	0x0000,0x1040,0x18c0,0x0d80,0x0700,0x0700,0x0d80,0x18c0
         C0 18 80 0D
         00 07 00 07
         80 0D C0 18
000085B1 40 10 00 00        	.dw	0x1040,0x0000,0xfff8,0x0000,0x1800,0x1e08,0x0798,0x01f0
         F8 FF 00 00
         00 18 08 1E
         98 07 F0 01
000085B9 E0 01 80 07        	.dw	0x01e0,0x0780,0x1e00,0x1800,0x0000,0xfff8,0x0000,0x10c0
         00 1E 00 18
         00 00 F8 FF
         00 00 C0 10
000085C1 C0 11 40 13        	.dw	0x11c0,0x1340,0x1640,0x1c40,0x1840,0x0000,0xfff8,0x0000
         40 16 40 1C
         40 18 00 00
         F8 FF 00 00
000085C9 00 02 F0 7F        	.dw	0x0200,0x7ff0,0xfdf8,0x8008,0x0000,0xfff8,0x0000,0xfdf8
         F8 FD 08 80
         00 00 F8 FF
         00 00 F8 FD
000085D1 F8 FD 00 00        	.dw	0xfdf8,0x0000,0xfff8,0x0000,0x8008,0xfdf8,0x7ff0,0x0200
         F8 FF 00 00
         08 80 F8 FD
         F0 7F 00 02
000085D9 00 00 F8 FF        	.dw	0x0000,0xfff8,0x0000,0xc000,0x8000,0xc000,0x4000,0xc000
         00 00 00 C0
         00 80 00 C0
         00 40 00 C0
000085E1 00 00 F8 FF        	.dw	0x0000,0xfff8,0x0000,0x0f80,0x3060,0x4510,0x4090,0x4090
         00 00 80 0F
         60 30 10 45
         90 40 90 40
000085E9 10 45 60 30        	.dw	0x4510,0x3060,0x0f80,0x0000,0xfff8,0x0000,0x0000,0x1ff0
         80 0F 00 00
         F8 FF 00 00
         00 00 F0 1F
000085F1 80 1F 40 00        	.dw	0x1f80,0x0040,0x0040,0x1fc0,0x1f80,0x0040,0x0040,0x0000
         40 00 C0 1F
         80 1F 40 00
         40 00 00 00
000085F9 F8 FF 00 00        	.dw	0xfff8,0x0000,0x0040,0x3ae0,0x7ea0,0x47e0,0x73c0,0x3260
         40 00 E0 3A
         A0 7E E0 47
         C0 73 60 32
00008601 20 00 60 00        	.dw	0x0020,0x0060,0x0000,0xfff8,0x0000,0x2000,0x3140,0x1d40
         00 00 F8 FF
         00 00 00 20
         40 31 40 1D
00008609 E0 07 E0 07        	.dw	0x07e0,0x07e0,0x1d40,0x3140,0x2000,0x0000,0xfff8,0x0000
         40 1D 40 31
         00 20 00 00
         F8 FF 00 00
00008611 80 1F C0 3F        	.dw	0x1f80,0x3fc0,0x30c0,0xfff0,0x30c0,0x1980,0x0000,0xfff8
         C0 30 F0 FF
         C0 30 80 19
         00 00 F8 FF
00008619 00 00 C0 19        	.dw	0x0000,0x19c0,0x3be0,0x2220,0x1fe0,0x1fc0,0x2220,0x3ee0
         E0 3B 20 22
         E0 1F C0 1F
         20 22 E0 3E
00008621 C0 1C 00 00        	.dw	0x1cc0,0x0000,0xfff8,0x0000,0x3e00,0x7f00,0xc180,0x80e8
         F8 FF 00 00
         00 3E 00 7F
         80 C1 E8 80
00008629 F0 80 80 C1        	.dw	0x80f0,0xc180,0x6300,0x0000,0xfff8,0x0000,0x3800,0x6000
         00 63 00 00
         F8 FF 00 00
         00 38 00 60
00008631 00 C0 00 C0        	.dw	0xc000,0xc000,0xc000,0x6000,0x3800,0x0000,0xfff8,0x0000
         00 C0 00 60
         00 38 00 00
         F8 FF 00 00
00008639 00 00 C0 DF        	.dw	0x0000,0xdfc0,0xdfc0,0x0000,0xfff8,0x0000,0x00e0,0x01f0
         C0 DF 00 00
         F8 FF 00 00
         E0 00 F0 01
00008641 10 37 10 36        	.dw	0x3710,0x3610,0x0070,0x0060,0x0000,0xfff8,0x0000,0x4000
         70 00 60 00
         00 00 F8 FF
         00 00 00 40
00008649 00 A0 00 40        	.dw	0xa000,0x4000,0x0000,0x0000,0xfff8,0x0000,0x0000,0x0000
         00 00 00 00
         F8 FF 00 00
         00 00 00 00
00008651 00 00 00 00        	.dw	0x0000,0x0000,0x0000,0x0000,0x0000,0x0000,0x0000,0xfff8
         00 00 00 00
         00 00 00 00
         00 00 F8 FF
00008659 00 00 00 00        	.dw	0x0000,0x0000,0x0000,0x0000,0x0000,0x0000,0x0000,0x0000
         00 00 00 00
         00 00 00 00
         00 00 00 00
00008661 00 00 F8 FF        	.dw	0x0000,0xfff8,0x0000,0x0000,0x0000,0x0000,0x0000,0x0000
         00 00 00 00
         00 00 00 00
         00 00 00 00
00008669 00 00 F8 FF        	.dw	0x0000,0xfff8,0x0000,0x0000,0x0000,0x0000,0x0000,0x0000
         00 00 00 00
         00 00 00 00
         00 00 00 00
00008671 00 00 F8 FF        	.dw	0x0000,0xfff8,0x0000,0x0000,0x0000,0x0000,0x0000,0x0000
         00 00 00 00
         00 00 00 00
         00 00 00 00
00008679 00 00 F8 FF        	.dw	0x0000,0xfff8,0x0000,0x0000,0x0000,0x0000,0x0000,0x0000
         00 00 00 00
         00 00 00 00
         00 00 00 00
00008681 00 00 F8 FF        	.dw	0x0000,0xfff8,0x0000,0x0980,0x9bc0,0xd640,0x3440,0x1fc0
         00 00 80 09
         C0 9B 40 D6
         40 34 C0 1F
00008689 C0 0F 00 00        	.dw	0x0fc0,0x0000,0xfff8,0x0000,0x0980,0x1bc0,0x1640,0x3440
         F8 FF 00 00
         80 09 C0 1B
         40 16 40 34
00008691 C0 DF C0 8F        	.dw	0xdfc0,0x8fc0,0x0000,0xfff8,0x0000,0x0980,0x5bc0,0x9640
         00 00 F8 FF
         00 00 80 09
         C0 5B 40 96
00008699 40 94 C0 5F        	.dw	0x9440,0x5fc0,0x0fc0,0x0000,0xfff8,0x0000,0x0980,0xdbc0
         C0 0F 00 00
         F8 FF 00 00
         80 09 C0 DB
000086A1 40 D6 40 14        	.dw	0xd640,0x1440,0xdfc0,0xcfc0,0x0000,0xfff8,0x0000,0x0980
         C0 DF C0 CF
         00 00 F8 FF
         00 00 80 09
000086A9 C0 5B 40 B6        	.dw	0x5bc0,0xb640,0xb440,0x5fc0,0x0fc0,0x0000,0xfff8,0x0000
         40 B4 C0 5F
         C0 0F 00 00
         F8 FF 00 00
000086B1 C0 00 C0 01        	.dw	0x00c0,0x01c0,0x8f00,0xdd00,0x3d00,0x0f00,0x01c0,0x00c0
         00 8F 00 DD
         00 3D 00 0F
         C0 01 C0 00
000086B9 00 00 F8 FF        	.dw	0x0000,0xfff8,0x0000,0x00c0,0x01c0,0x0f00,0x3d00,0xdd00
         00 00 C0 00
         C0 01 00 0F
         00 3D 00 DD
000086C1 00 8F C0 01        	.dw	0x8f00,0x01c0,0x00c0,0x0000,0xfff8,0x0000,0x00c0,0x01c0
         C0 00 00 00
         F8 FF 00 00
         C0 00 C0 01
000086C9 00 4F 00 9D        	.dw	0x4f00,0x9d00,0x9d00,0x4f00,0x01c0,0x00c0,0x0000,0xfff8
         00 9D 00 4F
         C0 01 C0 00
         00 00 F8 FF
000086D1 00 00 C0 00        	.dw	0x0000,0x00c0,0xc1c0,0xcf00,0x1d00,0x1d00,0xcf00,0xc1c0
         C0 C1 00 CF
         00 1D 00 1D
         00 CF C0 C1
000086D9 C0 00 00 00        	.dw	0x00c0,0x0000,0xfff8,0x0000,0x00c0,0x01c0,0x4f00,0xbd00
         F8 FF 00 00
         C0 00 C0 01
         00 4F 00 BD
000086E1 00 BD 00 4F        	.dw	0xbd00,0x4f00,0x01c0,0x00c0,0x0000,0xfff8,0x0000,0x0f80
         C0 01 C0 00
         00 00 F8 FF
         00 00 80 0F
000086E9 C0 9F 40 D4        	.dw	0x9fc0,0xd440,0x3440,0x1cc0,0x0c80,0x0000,0xfff8,0x0000
         40 34 C0 1C
         80 0C 00 00
         F8 FF 00 00
000086F1 80 0F C0 1F        	.dw	0x0f80,0x1fc0,0x3440,0xd440,0x9cc0,0x0c80,0x0000,0xfff8
         40 34 40 D4
         C0 9C 80 0C
         00 00 F8 FF
000086F9 00 00 80 0F        	.dw	0x0000,0x0f80,0x5fc0,0x9440,0x9440,0x5cc0,0x0c80,0x0000
         C0 5F 40 94
         40 94 C0 5C
         80 0C 00 00
00008701 F8 FF 00 00        	.dw	0xfff8,0x0000,0x0f80,0xdfc0,0xd440,0x1440,0xdcc0,0xcc80
         80 0F C0 DF
         40 D4 40 14
         C0 DC 80 CC
00008709 00 00 F8 FF        	.dw	0x0000,0xfff8,0x0000,0x1fc0,0x9fc0,0xd240,0x3240,0x1240
         00 00 C0 1F
         C0 9F 40 D2
         40 32 40 12
00008711 40 12 40 10        	.dw	0x1240,0x1040,0x0000,0xfff8,0x0000,0x1fc0,0x1fc0,0x3240
         00 00 F8 FF
         00 00 C0 1F
         C0 1F 40 32
00008719 40 D2 40 92        	.dw	0xd240,0x9240,0x1240,0x1040,0x0000,0xfff8,0x0000,0x1fc0
         40 12 40 10
         00 00 F8 FF
         00 00 C0 1F
00008721 C0 5F 40 92        	.dw	0x5fc0,0x9240,0x9240,0x9240,0x5240,0x1040,0x0000,0xfff8
         40 92 40 92
         40 52 40 10
         00 00 F8 FF
00008729 00 00 C0 1F        	.dw	0x0000,0x1fc0,0xdfc0,0xd240,0x1240,0xd240,0xd240,0x1040
         C0 DF 40 D2
         40 12 40 D2
         40 D2 40 10
00008731 00 00 F8 FF        	.dw	0x0000,0xfff8,0x0000,0x8000,0xdfc0,0x1fc0,0x0000,0xfff8
         00 00 00 80
         C0 DF C0 1F
         00 00 F8 FF
00008739 00 00 C0 1F        	.dw	0x0000,0x1fc0,0xdfc0,0x8000,0x0000,0xfff8,0x0000,0x4000
         C0 DF 00 80
         00 00 F8 FF
         00 00 00 40
00008741 C0 9F C0 9F        	.dw	0x9fc0,0x9fc0,0x4000,0x0000,0xfff8,0x0000,0xc000,0x1fc0
         00 40 00 00
         F8 FF 00 00
         00 C0 C0 1F
00008749 C0 1F 00 C0        	.dw	0x1fc0,0xc000,0x0000,0xfff8,0x0000,0x9040,0xdfc0,0x1fc0
         00 00 F8 FF
         00 00 40 90
         C0 DF C0 1F
00008751 40 10 F8 FF        	.dw	0x1040,0xfff8,0x0000,0x1040,0x1fc0,0xdfc0,0x9040,0x0000
         00 00 40 10
         C0 1F C0 DF
         40 90 00 00
00008759 F8 FF 00 00        	.dw	0xfff8,0x0000,0x5040,0x9fc0,0x9fc0,0x5040,0x0000,0xfff8
         40 50 C0 9F
         C0 9F 40 50
         00 00 F8 FF
00008761 00 00 40 D0        	.dw	0x0000,0xd040,0x1fc0,0x1fc0,0xd040,0x0000,0xfff8,0x0000
         C0 1F C0 1F
         40 D0 00 00
         F8 FF 00 00
00008769 80 0F C0 9F        	.dw	0x0f80,0x9fc0,0xd040,0x3040,0x1fc0,0x0f80,0x0000,0xfff8
         40 D0 40 30
         C0 1F 80 0F
         00 00 F8 FF
00008771 00 00 80 0F        	.dw	0x0000,0x0f80,0x1fc0,0x3040,0xd040,0x9fc0,0x0f80,0x0000
         C0 1F 40 30
         40 D0 C0 9F
         80 0F 00 00
00008779 F8 FF 00 00        	.dw	0xfff8,0x0000,0x0f80,0x5fc0,0x9040,0x9040,0x5fc0,0x0f80
         80 0F C0 5F
         40 90 40 90
         C0 5F 80 0F
00008781 00 00 F8 FF        	.dw	0x0000,0xfff8,0x0000,0xcf80,0xdfc0,0x1040,0x1040,0xdfc0
         00 00 80 CF
         C0 DF 40 10
         40 10 C0 DF
00008789 80 CF 00 00        	.dw	0xcf80,0x0000,0xfff8,0x0000,0x0700,0x0f80,0x98c0,0xd040
         F8 FF 00 00
         00 07 80 0F
         C0 98 40 D0
00008791 40 30 C0 18        	.dw	0x3040,0x18c0,0x0f80,0x0700,0x0000,0xfff8,0x0000,0x0700
         80 0F 00 07
         00 00 F8 FF
         00 00 00 07
00008799 80 0F C0 18        	.dw	0x0f80,0x18c0,0x3040,0xd040,0x98c0,0x0f80,0x0700,0x0000
         40 30 40 D0
         C0 98 80 0F
         00 07 00 00
000087A1 F8 FF 00 00        	.dw	0xfff8,0x0000,0x0700,0x0f80,0x58c0,0x9040,0x9040,0x58c0
         00 07 80 0F
         C0 58 40 90
         40 90 C0 58
000087A9 80 0F 00 07        	.dw	0x0f80,0x0700,0x0000,0xfff8,0x0000,0x0700,0xcf80,0xd8c0
         00 00 F8 FF
         00 00 00 07
         80 CF C0 D8
000087B1 40 10 40 10        	.dw	0x1040,0x1040,0xd8c0,0xcf80,0x0700,0x0000,0xfff8,0x0000
         C0 D8 80 CF
         00 07 00 00
         F8 FF 00 00
000087B9 80 1F C0 9F        	.dw	0x1f80,0x9fc0,0xc040,0x2040,0x1fc0,0x1fc0,0x0000,0xfff8
         40 C0 40 20
         C0 1F C0 1F
         00 00 F8 FF
000087C1 00 00 80 1F        	.dw	0x0000,0x1f80,0x1fc0,0x2040,0xc040,0x9fc0,0x1fc0,0x0000
         C0 1F 40 20
         40 C0 C0 9F
         C0 1F 00 00
000087C9 F8 FF 00 00        	.dw	0xfff8,0x0000,0x1f80,0x5fc0,0x8040,0x8040,0x5fc0,0x1fc0
         80 1F C0 5F
         40 80 40 80
         C0 5F C0 1F
000087D1 00 00 F8 FF        	.dw	0x0000,0xfff8,0x0000,0xdf80,0xdfc0,0x0040,0x0040,0xdfc0
         00 00 80 DF
         C0 DF 40 00
         40 00 C0 DF
000087D9 80 DF 00 00        	.dw	0xdf80,0x0000,0xfff8,0x0000,0x1f00,0x1f80,0x80c0,0xc040
         F8 FF 00 00
         00 1F 80 1F
         C0 80 40 C0
000087E1 40 20 C0 00        	.dw	0x2040,0x00c0,0x1f80,0x1f00,0x0000,0xfff8,0x0000,0x1f00
         80 1F 00 1F
         00 00 F8 FF
         00 00 00 1F
000087E9 80 1F C0 00        	.dw	0x1f80,0x00c0,0x2040,0xc040,0x80c0,0x1f80,0x1f00,0x0000
         40 20 40 C0
         C0 80 80 1F
         00 1F 00 00
000087F1 F8 FF 00 00        	.dw	0xfff8,0x0000,0x1f00,0x1f80,0x40c0,0x8040,0x8040,0x40c0
         00 1F 80 1F
         C0 40 40 80
         40 80 C0 40
000087F9 80 1F 00 1F        	.dw	0x1f80,0x1f00,0x0000,0xfff8,0x0000,0xdf00,0xdf80,0x00c0
         00 00 F8 FF
         00 00 00 DF
         80 DF C0 00
00008801 40 00 40 00        	.dw	0x0040,0x0040,0x00c0,0xdf80,0xdf00,0x0000,0xfff8,0x0000
         C0 00 80 DF
         00 DF 00 00
         F8 FF 00 00
00008809 00 18 08 1E        	.dw	0x1800,0x1e08,0x0798,0x21f0,0xc1e0,0x8780,0x1e00,0x1800
         98 07 F0 21
         E0 C1 80 87
         00 1E 00 18
00008811 00 00 F8 FF        	.dw	0x0000,0xfff8,0x0000,0x2000,0x3000,0x1800,0x0c00,0x2fc0
         00 00 00 20
         00 30 00 18
         00 0C C0 2F
00008819 C0 CF 00 8C        	.dw	0xcfc0,0x8c00,0x1800,0x3000,0x2000,0x0000,0xfff8,0x0000
         00 18 00 30
         00 20 00 00
         F8 FF 00 00
00008821 80 3F C0 7F        	.dw	0x3f80,0x7fc0,0x8160,0x9930,0xff00,0x6600,0x0000,0xfff8
         60 81 30 99
         00 FF 00 66
         00 00 F8 FF
00008829 00 00 C0 5F        	.dw	0x0000,0x5fc0,0x9fc0,0x9000,0x5000,0x5fc0,0x8fc0,0x0000
         C0 9F 00 90
         00 50 C0 5F
         C0 8F 00 00
00008831 F8 FF 00 00        	.dw	0xfff8,0x0000,0x4f80,0x9fc0,0x9040,0x5040,0x5fc0,0x8f80
         80 4F C0 9F
         40 90 40 50
         C0 5F 80 8F
00008839 00 00 F8 FF        	.dw	0x0000,0xfff8,0x0000,0x4980,0x9bc0,0x9640,0x5440,0x5fc0
         00 00 80 49
         C0 9B 40 96
         40 54 C0 5F
00008841 C0 8F 00 00        	.dw	0x8fc0,0x0000,0xfff8
         F8 FF      
                            	
                            	//;Sunnorth code.,0x;Written by: Bai-yawei.,0x;
                            	//smallb1.BM_,0x;width=16(2byte)		height=1360,0x,0x
                            	
                            	.public	smallb1
                            	smallb1:
                            	//.dw	0x0000,0xffc0,0x0000,
00008844 C0 FF 00 00        	.dw	0xffc0,0x0000,0x0000,0x0000,0x0000,0x0000
         00 00 00 00
         00 00 00 00
0000884A C0 FF 00 00        	.dw	0xffc0,0x0000,0x0000,0xe300,0xfb00,0x0000,0x0000,0xffc0,0x0000
         00 00 00 E3
         00 FB 00 00
         00 00 C0 FF
         00 00      
00008853 00 E0 00 E0        	.dw	0xe000,0xe000,0x0000,0xe000,0xe000,0x0000,0xffc0,0x0000,0x1400
         00 00 00 E0
         00 E0 00 00
         C0 FF 00 00
         00 14      
0000885C 00 1F 00 F4        	.dw	0x1f00,0xf400,0x1f00,0xf400,0x1400,0xffc0,0x0000,0x3100,0x5880
         00 1F 00 F4
         00 14 C0 FF
         00 00 00 31
         80 58      
00008865 C0 FD 80 4C        	.dw	0xfdc0,0x4c80,0x2700,0x0000,0xffc0,0x0000,0x7000,0x8900,0x7200
         00 27 00 00
         C0 FF 00 00
         00 70 00 89
         00 72      
0000886E 00 0C 00 30        	.dw	0x0c00,0x3000,0x4e00,0x9100,0x0e00,0xffc0,0x0000,0x0600,0x0f00
         00 4E 00 91
         00 0E C0 FF
         00 00 00 06
         00 0F      
00008877 00 73 00 F9        	.dw	0x7300,0xf900,0x9e00,0xe700,0x1900,0x1200,0x0000,0xffc0,0x0000
         00 9E 00 E7
         00 19 00 12
         00 00 C0 FF
         00 00      
00008880 00 E0 00 E0        	.dw	0xe000,0xe000,0x0000,0xffc0,0x0000,0x1e00,0x7f80,0x4080,0x8040
         00 00 C0 FF
         00 00 00 1E
         80 7F 80 40
         40 80      
00008889 00 00 C0 FF        	.dw	0x0000,0xffc0,0x0000,0x8040,0x4080,0x7f80,0x1e00,0x0000,0xffc0
         00 00 40 80
         80 40 80 7F
         00 1E 00 00
         C0 FF      
00008892 00 00 00 20        	.dw	0x0000,0x2000,0x2800,0xf000,0x2800,0x2000,0x0000,0xffc0,0x0000
         00 28 00 F0
         00 28 00 20
         00 00 C0 FF
         00 00      
0000889B 00 08 00 08        	.dw	0x0800,0x0800,0x3e00,0x0800,0x0800,0x0000,0xffc0,0x0000,0x0340
         00 3E 00 08
         00 08 00 00
         C0 FF 00 00
         40 03      
000088A4 80 03 00 00        	.dw	0x0380,0x0000,0xffc0,0x0000,0x0400,0x0400,0x0400,0x0000,0xffc0
         C0 FF 00 00
         00 04 00 04
         00 04 00 00
         C0 FF      
000088AD 00 00 00 00        	.dw	0x0000,0x0000,0x0300,0x0300,0x0000,0xffc0,0x0000,0x0300,0x3c00
         00 03 00 03
         00 00 C0 FF
         00 00 00 03
         00 3C      
000088B6 00 C0 C0 FF        	.dw	0xc000,0xffc0,0x0000,0x7e00,0xff00,0x8100,0xff00,0x7e00,0x0000
         00 00 00 7E
         00 FF 00 81
         00 FF 00 7E
         00 00      
000088BF C0 FF 00 00        	.dw	0xffc0,0x0000,0x0000,0x8100,0xff00,0xff00,0x0100,0x0000,0xffc0
         00 00 00 81
         00 FF 00 FF
         00 01 00 00
         C0 FF      
000088C8 00 00 00 61        	.dw	0x0000,0x6100,0xc700,0xc700,0xfb00,0x6300,0x0000,0xffc0,0x0000
         00 C7 00 C7
         00 FB 00 63
         00 00 C0 FF
         00 00      
000088D1 00 42 00 81        	.dw	0x4200,0x8100,0x9100,0xff00,0x6e00,0x0000,0xffc0,0x0000,0x0c00
         00 91 00 FF
         00 6E 00 00
         C0 FF 00 00
         00 0C      
000088DA 00 14 00 24        	.dw	0x1400,0x2400,0x7f00,0xff00,0x0400,0xffc0,0x0000,0x1b00,0xfb00
         00 7F 00 FF
         00 04 C0 FF
         00 00 00 1B
         00 FB      
000088E3 00 D9 00 DA        	.dw	0xd900,0xda00,0x8c00,0x0000,0xffc0,0x0000,0x1e00,0x7f00,0x5100
         00 8C 00 00
         C0 FF 00 00
         00 1E 00 7F
         00 51      
000088EC 00 9F 00 8E        	.dw	0x9f00,0x8e00,0x0000,0xffc0,0x0000,0xc000,0xc000,0xc700,0xf800
         00 00 C0 FF
         00 00 00 C0
         00 C0 00 C7
         00 F8      
000088F5 00 C0 00 00        	.dw	0xc000,0x0000,0xffc0,0x0000,0x6600,0xff00,0x9900,0xff00,0x6600
         C0 FF 00 00
         00 66 00 FF
         00 99 00 FF
         00 66      
000088FE 00 00 C0 FF        	.dw	0x0000,0xffc0,0x0000,0x7100,0xf900,0x8a00,0xfe00,0x7800,0x0000
         00 00 00 71
         00 F9 00 8A
         00 FE 00 78
         00 00      
00008907 C0 FF 00 00        	.dw	0xffc0,0x0000,0x0000,0x1b00,0x1b00,0x0000,0xffc0,0x0000,0x0000
         00 00 00 1B
         00 1B 00 00
         C0 FF 00 00
         00 00      
00008910 40 1B 80 1B        	.dw	0x1b40,0x1b80,0xffc0,0x0000,0x0800,0x1400,0x1400,0x1400,0x2200
         C0 FF 00 00
         00 08 00 14
         00 14 00 14
         00 22      
00008919 00 00 C0 FF        	.dw	0x0000,0xffc0,0x0000,0x1400,0x1400,0x1400,0x1400,0x1400,0x0000
         00 00 00 14
         00 14 00 14
         00 14 00 14
         00 00      
00008922 C0 FF 00 00        	.dw	0xffc0,0x0000,0x2200,0x1400,0x1400,0x1400,0x0800,0x0000,0xffc0
         00 22 00 14
         00 14 00 14
         00 08 00 00
         C0 FF      
0000892B 00 00 00 60        	.dw	0x0000,0x6000,0xe300,0x8b00,0xf000,0x6000,0x0000,0xffc0,0x0000
         00 E3 00 8B
         00 F0 00 60
         00 00 C0 FF
         00 00      
00008934 00 1E 00 21        	.dw	0x1e00,0x2100,0x4680,0x8f40,0x9140,0x9240,0x8f40,0x5a80,0x3f00
         80 46 40 8F
         40 91 40 92
         40 8F 80 5A
         00 3F      
0000893D 00 00 C0 FF        	.dw	0x0000,0xffc0,0x0000,0x0100,0x0700,0x1900,0xe800,0xf900,0x3f00
         00 00 00 01
         00 07 00 19
         00 E8 00 F9
         00 3F      
00008946 00 07 00 01        	.dw	0x0700,0x0100,0x0000,0xffc0,0x0000,0x8100,0xff00,0xff00,0x9100
         00 00 C0 FF
         00 00 00 81
         00 FF 00 FF
         00 91      
0000894F 00 91 00 FF        	.dw	0x9100,0xff00,0x6e00,0x0000,0xffc0,0x0000,0x3c00,0x7e00,0xc300
         00 6E 00 00
         C0 FF 00 00
         00 3C 00 7E
         00 C3      
00008958 00 81 00 81        	.dw	0x8100,0x8100,0x4100,0xe200,0x0000,0xffc0,0x0000,0x8100,0xff00
         00 41 00 E2
         00 00 C0 FF
         00 00 00 81
         00 FF      
00008961 00 FF 00 81        	.dw	0xff00,0x8100,0x8100,0xc300,0x7e00,0x3c00,0x0000,0xffc0,0x0000
         00 81 00 C3
         00 7E 00 3C
         00 00 C0 FF
         00 00      
0000896A 00 81 00 FF        	.dw	0x8100,0xff00,0xff00,0x9100,0xb900,0xc300,0x0000,0xffc0,0x0000
         00 FF 00 91
         00 B9 00 C3
         00 00 C0 FF
         00 00      
00008973 00 81 00 FF        	.dw	0x8100,0xff00,0xff00,0x9100,0xb800,0xc000,0xffc0,0x0000,0x3c00
         00 FF 00 91
         00 B8 00 C0
         C0 FF 00 00
         00 3C      
0000897C 00 7E 00 C3        	.dw	0x7e00,0xc300,0x8100,0x8500,0x4700,0xe600,0x0400,0xffc0,0x0000
         00 81 00 85
         00 47 00 E6
         00 04 C0 FF
         00 00      
00008985 00 81 00 FF        	.dw	0x8100,0xff00,0xff00,0x9100,0x1000,0x9100,0xff00,0xff00,0x8100
         00 FF 00 91
         00 10 00 91
         00 FF 00 FF
         00 81      
0000898E 00 00 C0 FF        	.dw	0x0000,0xffc0,0x0000,0x8100,0xff00,0xff00,0x8100,0x0000,0xffc0
         00 00 00 81
         00 FF 00 FF
         00 81 00 00
         C0 FF      
00008997 00 00 00 06        	.dw	0x0000,0x0600,0x0700,0x8100,0xff00,0xfe00,0x8000,0xffc0,0x0000
         00 07 00 81
         00 FF 00 FE
         00 80 C0 FF
         00 00      
000089A0 00 81 00 FF        	.dw	0x8100,0xff00,0xff00,0x9900,0x3c00,0xc700,0x8300,0x8100,0xffc0
         00 FF 00 99
         00 3C 00 C7
         00 83 00 81
         C0 FF      
000089A9 00 00 00 81        	.dw	0x0000,0x8100,0xff00,0xff00,0x8100,0x0100,0x0300,0x0700,0x0000
         00 FF 00 FF
         00 81 00 01
         00 03 00 07
         00 00      
000089B2 C0 FF 00 00        	.dw	0xffc0,0x0000,0x8100,0xff00,0xe100,0xfc00,0x1f00,0x1c00,0xe100
         00 81 00 FF
         00 E1 00 FC
         00 1F 00 1C
         00 E1      
000089BB 00 FF 00 FF        	.dw	0xff00,0xff00,0x8100,0x0000,0xffc0,0x0000,0x8100,0xff00,0xc100
         00 81 00 00
         C0 FF 00 00
         00 81 00 FF
         00 C1      
000089C4 00 70 00 38        	.dw	0x7000,0x3800,0x8e00,0xff00,0x8000,0x0000,0xffc0,0x0000,0x3c00
         00 8E 00 FF
         00 80 00 00
         C0 FF 00 00
         00 3C      
000089CD 00 7E 00 C3        	.dw	0x7e00,0xc300,0x8100,0x8100,0xc300,0x7e00,0x3c00,0x0000,0xffc0
         00 81 00 81
         00 C3 00 7E
         00 3C 00 00
         C0 FF      
000089D6 00 00 00 81        	.dw	0x0000,0x8100,0xff00,0xff00,0x8900,0x8800,0xf800,0x7000,0x0000
         00 FF 00 FF
         00 89 00 88
         00 F8 00 70
         00 00      
000089DF C0 FF 00 00        	.dw	0xffc0,0x0000,0x3c00,0x7e00,0xc300,0x8180,0x81c0,0xc340,0x7e40
         00 3C 00 7E
         00 C3 80 81
         C0 81 40 C3
         40 7E      
000089E8 40 3C 00 00        	.dw	0x3c40,0x0000,0xffc0,0x0000,0x8100,0xff00,0xff00,0x9100,0x9c00
         C0 FF 00 00
         00 81 00 FF
         00 FF 00 91
         00 9C      
000089F1 00 EF 00 63        	.dw	0xef00,0x6300,0x0100,0xffc0,0x0000,0x7300,0xfa00,0x9900,0x5f00
         00 01 C0 FF
         00 00 00 73
         00 FA 00 99
         00 5F      
000089FA 00 CE 00 00        	.dw	0xce00,0x0000,0xffc0,0x0000,0xc000,0x8100,0xff00,0xff00,0x8100
         C0 FF 00 00
         00 C0 00 81
         00 FF 00 FF
         00 81      
00008A03 00 C0 00 00        	.dw	0xc000,0x0000,0xffc0,0x0000,0x8000,0xfe00,0xff00,0x8100,0x0100
         C0 FF 00 00
         00 80 00 FE
         00 FF 00 81
         00 01      
00008A0C 00 81 00 FE        	.dw	0x8100,0xfe00,0x8000,0x0000,0xffc0,0x0000,0x8000,0xe000,0xfc00
         00 80 00 00
         C0 FF 00 00
         00 80 00 E0
         00 FC      
00008A15 00 9F 00 03        	.dw	0x9f00,0x0300,0x9c00,0xe000,0x8000,0xffc0,0x0000,0x8000,0xe000
         00 9C 00 E0
         00 80 C0 FF
         00 00 00 80
         00 E0      
00008A1E 00 F8 00 1F        	.dw	0xf800,0x1f00,0x8700,0xd800,0xf800,0x9f00,0x0700,0xb800,0xc000
         00 87 00 D8
         00 F8 00 9F
         00 07 00 B8
         00 C0      
00008A27 00 80 C0 FF        	.dw	0x8000,0xffc0,0x0000,0x8100,0xc300,0xf500,0xbc00,0x2f00,0xc300
         00 00 00 81
         00 C3 00 F5
         00 BC 00 2F
         00 C3      
00008A30 00 81 00 00        	.dw	0x8100,0x0000,0xffc0,0x0000,0x8000,0xc000,0xf100,0xbf00,0x0f00
         C0 FF 00 00
         00 80 00 C0
         00 F1 00 BF
         00 0F      
00008A39 00 B1 00 C0        	.dw	0xb100,0xc000,0x8000,0x0000,0xffc0,0x0000,0x0100,0xe300,0x8f00
         00 80 00 00
         C0 FF 00 00
         00 01 00 E3
         00 8F      
00008A42 00 BD 00 F1        	.dw	0xbd00,0xf100,0xc300,0x8700,0x0000,0xffc0,0x0000,0x0000,0xfbc0
         00 C3 00 87
         00 00 C0 FF
         00 00 00 00
         C0 FB      
00008A4B C0 FB 40 80        	.dw	0xfbc0,0x8040,0xffc0,0x0000,0xc000,0x3c00,0x0300,0xffc0,0x0000
         C0 FF 00 00
         00 C0 00 3C
         00 03 C0 FF
         00 00      
00008A54 40 80 C0 FB        	.dw	0x8040,0xfbc0,0xfbc0,0x0000,0xffc0,0x0000,0x0800,0x3000,0x4000
         C0 FB 00 00
         C0 FF 00 00
         00 08 00 30
         00 40      
00008A5D 00 30 00 08        	.dw	0x3000,0x0800,0x0000,0xffc0,0x0000,0x0040,0x0040,0x0040,0x0040
         00 00 C0 FF
         00 00 40 00
         40 00 40 00
         40 00      
00008A66 40 00 40 00        	.dw	0x0040,0x0040,0xffc0,0x0000,0x0000,0x8000,0x4000,0x0000,0xffc0
         C0 FF 00 00
         00 00 00 80
         00 40 00 00
         C0 FF      
00008A6F 00 00 00 0A        	.dw	0x0000,0x0a00,0x1700,0x1500,0x1f00,0x0f00,0x0100,0xffc0,0x0000
         00 17 00 15
         00 1F 00 0F
         00 01 C0 FF
         00 00      
00008A78 00 80 00 FF        	.dw	0x8000,0xff00,0xfe00,0x1100,0x1f00,0x0e00,0x0000,0xffc0,0x0000
         00 FE 00 11
         00 1F 00 0E
         00 00 C0 FF
         00 00      
00008A81 00 0E 00 1F        	.dw	0x0e00,0x1f00,0x1100,0x1900,0x0000,0xffc0,0x0000,0x0e00,0x1f00
         00 11 00 19
         00 00 C0 FF
         00 00 00 0E
         00 1F      
00008A8A 00 91 00 FF        	.dw	0x9100,0xff00,0xff00,0x0100,0xffc0,0x0000,0x0e00,0x1f00,0x1500
         00 FF 00 01
         C0 FF 00 00
         00 0E 00 1F
         00 15      
00008A93 00 1D 00 0D        	.dw	0x1d00,0x0d00,0x0000,0xffc0,0x0000,0x1100,0x7f00,0xff00,0x9100
         00 00 C0 FF
         00 00 00 11
         00 7F 00 FF
         00 91      
00008A9C 00 C0 C0 FF        	.dw	0xc000,0xffc0,0x0000,0x0a80,0x1fc0,0x1540,0x1d40,0x19c0,0x1180
         00 00 80 0A
         C0 1F 40 15
         40 1D C0 19
         80 11      
00008AA5 C0 FF 00 00        	.dw	0xffc0,0x0000,0x8100,0xff00,0xff00,0x1000,0x1f00,0x0f00,0x0100
         00 81 00 FF
         00 FF 00 10
         00 1F 00 0F
         00 01      
00008AAE C0 FF 00 00        	.dw	0xffc0,0x0000,0x1100,0xdf00,0xdf00,0x0100,0xffc0,0x0000,0x00c0
         00 11 00 DF
         00 DF 00 01
         C0 FF 00 00
         C0 00      
00008AB7 40 10 C0 DF        	.dw	0x1040,0xdfc0,0xdf80,0x0000,0xffc0,0x0000,0x8100,0xff00,0xff00
         80 DF 00 00
         C0 FF 00 00
         00 81 00 FF
         00 FF      
00008AC0 00 08 00 1F        	.dw	0x0800,0x1f00,0x1700,0x1100,0xffc0,0x0000,0x8100,0xff00,0xff00
         00 17 00 11
         C0 FF 00 00
         00 81 00 FF
         00 FF      
00008AC9 00 01 C0 FF        	.dw	0x0100,0xffc0,0x0000,0x1100,0x1f00,0x1f00,0x1000,0x1f00,0x0f00
         00 00 00 11
         00 1F 00 1F
         00 10 00 1F
         00 0F      
00008AD2 00 10 00 1F        	.dw	0x1000,0x1f00,0x0f00,0x0100,0xffc0,0x0000,0x1100,0x1f00,0x1f00
         00 0F 00 01
         C0 FF 00 00
         00 11 00 1F
         00 1F      
00008ADB 00 10 00 1F        	.dw	0x1000,0x1f00,0x0f00,0x0100,0xffc0,0x0000,0x0e00,0x1f00,0x1100
         00 0F 00 01
         C0 FF 00 00
         00 0E 00 1F
         00 11      
00008AE4 00 1F 00 0E        	.dw	0x1f00,0x0e00,0x0000,0xffc0,0x0000,0x1040,0x1fc0,0x1fc0,0x1140
         00 00 C0 FF
         00 00 40 10
         C0 1F C0 1F
         40 11      
00008AED 00 1F 00 0E        	.dw	0x1f00,0x0e00,0x0000,0xffc0,0x0000,0x0e00,0x1f00,0x1140,0x0fc0
         00 00 C0 FF
         00 00 00 0E
         00 1F 40 11
         C0 0F      
00008AF6 C0 1F 40 00        	.dw	0x1fc0,0x0040,0xffc0,0x0000,0x1100,0x1f00,0x1f00,0x1100,0x1800
         C0 FF 00 00
         00 11 00 1F
         00 1F 00 11
         00 18      
00008AFF C0 FF 00 00        	.dw	0xffc0,0x0000,0x0b00,0x1d00,0x1700,0x1a00,0x0000,0xffc0,0x0000
         00 0B 00 1D
         00 17 00 1A
         00 00 C0 FF
         00 00      
00008B08 00 10 00 1F        	.dw	0x1000,0x1f00,0x7f00,0x1100,0x0000,0xffc0,0x0000,0x1000,0x1e00
         00 7F 00 11
         00 00 C0 FF
         00 00 00 10
         00 1E      
00008B11 00 1F 00 01        	.dw	0x1f00,0x0100,0x1f00,0x1f00,0x0100,0xffc0,0x0000,0x1000,0x1c00
         00 1F 00 1F
         00 01 C0 FF
         00 00 00 10
         00 1C      
00008B1A 00 1F 00 03        	.dw	0x1f00,0x0300,0x1c00,0x1000,0xffc0,0x0000,0x1000,0x1c00,0x1f00
         00 1C 00 10
         C0 FF 00 00
         00 10 00 1C
         00 1F      
00008B23 00 03 00 1C        	.dw	0x0300,0x1c00,0x1f00,0x0300,0x1c00,0x1000,0xffc0,0x0000,0x1100
         00 1F 00 03
         00 1C 00 10
         C0 FF 00 00
         00 11      
00008B2C 00 19 00 1E        	.dw	0x1900,0x1e00,0x0f00,0x1300,0x1100,0x0000,0xffc0,0x0000,0x10c0
         00 0F 00 13
         00 11 00 00
         C0 FF 00 00
         C0 10      
00008B35 40 1C 80 1F        	.dw	0x1c40,0x1f80,0x0600,0x1800,0x1000,0xffc0,0x0000,0x1100,0x1700
         00 06 00 18
         00 10 C0 FF
         00 00 00 11
         00 17      
00008B3E 00 1F 00 1D        	.dw	0x1f00,0x1d00,0x1100,0xffc0,0x0000,0x0800,0x7780,0xe3c0,0x8040
         00 11 C0 FF
         00 00 00 08
         80 77 C0 E3
         40 80      
00008B47 00 00 C0 FF        	.dw	0x0000,0xffc0,0x0000,0xfbc0,0xfbc0,0x0000,0xffc0,0x0000,0x8040
         00 00 C0 FB
         C0 FB 00 00
         C0 FF 00 00
         40 80      
00008B50 C0 E3 80 77        	.dw	0xe3c0,0x7780,0x0800,0x0000,0xffc0,0x0000,0x1c00,0x1800,0x0c00
         00 08 00 00
         C0 FF 00 00
         00 1C 00 18
         00 0C      
00008B59 00 06 00 0E        	.dw	0x0600,0x0e00,0x0000,0xffc0,0x0000,0x3e00,0x4100,0x9480,0x8280
         00 00 C0 FF
         00 00 00 3E
         00 41 80 94
         80 82      
00008B62 80 94 00 41        	.dw	0x9480,0x4100,0x3e00,0x0000,0xffc0,0x0000,0x3f80,0x3e00,0x0300
         00 3E 00 00
         C0 FF 00 00
         80 3F 00 3E
         00 03      
00008B6B 00 3F 00 3F        	.dw	0x3f00,0x3f00,0x0100,0x0000,0xffc0,0x0000,0x0880,0x7f00,0xff80
         00 01 00 00
         C0 FF 00 00
         80 08 00 7F
         80 FF      
00008B74 80 88 80 69        	.dw	0x8880,0x6980,0x0100,0x0000,0xffc0,0x0000,0x4a00,0x6a00,0x3f80
         00 01 00 00
         C0 FF 00 00
         00 4A 00 6A
         80 3F      
00008B7D 80 3F 00 6A        	.dw	0x3f80,0x6a00,0x4a00,0x0000,0xffc0,0x0000,0x3e00,0x7f00,0x4100
         00 4A 00 00
         C0 FF 00 00
         00 3E 00 7F
         00 41      
00008B86 80 FF 00 41        	.dw	0xff80,0x4100,0x2200,0x0000,0xffc0,0x0000,0x2600,0x4900,0x7f00
         00 22 00 00
         C0 FF 00 00
         00 26 00 49
         00 7F      
00008B8F 00 3E 00 49        	.dw	0x3e00,0x4900,0x3a00,0x0000,0xffc0,0x0000,0x3e00,0x7f40,0x41c0
         00 3A 00 00
         C0 FF 00 00
         00 3E 40 7F
         C0 41      
00008B98 80 41 00 22        	.dw	0x4180,0x2200,0x0000,0xffc0,0x0000,0x3800,0x7800,0xc000,0x8000
         00 00 C0 FF
         00 00 00 38
         00 78 00 C0
         00 80      
00008BA1 00 80 00 C0        	.dw	0x8000,0xc000,0x7800,0x3800,0x0000,0xffc0,0x0000,0xc700,0xdf00
         00 78 00 38
         00 00 C0 FF
         00 00 00 C7
         00 DF      
00008BAA 00 00 C0 FF        	.dw	0x0000,0xffc0,0x0000,0x0300,0x0780,0x6880,0x6380,0x0300,0x0000
         00 00 00 03
         80 07 80 68
         80 63 00 03
         00 00      
00008BB3 C0 FF 00 00        	.dw	0xffc0,0x0000,0x4000,0xa000,0x4000,0x0000,0x0000,0xffc0,0x0000
         00 40 00 A0
         00 40 00 00
         00 00 C0 FF
         00 00      
00008BBC 00 00 00 00        	.dw	0x0000,0x0000,0x0000,0x0000,0x0000,0xffc0,0x0000,0x0000,0x0000
         00 00 00 00
         00 00 C0 FF
         00 00 00 00
         00 00      
00008BC5 00 00 00 00        	.dw	0x0000,0x0000,0x0000,0x0000,0xffc0,0x0000,0x0000,0x0000,0x0000
         00 00 00 00
         C0 FF 00 00
         00 00 00 00
         00 00      
00008BCE 00 00 00 00        	.dw	0x0000,0x0000,0xffc0,0x0000,0x0000,0x0000,0x0000,0x0000,0x0000
         C0 FF 00 00
         00 00 00 00
         00 00 00 00
         00 00      
00008BD7 00 00 00 00        	.dw	0x0000,0x0000,0xffc0,0x0000,0x0000,0x0000,0x0000,0x0000,0x0000
         C0 FF 00 00
         00 00 00 00
         00 00 00 00
         00 00      
00008BE0 00 00 C0 FF        	.dw	0x0000,0xffc0,0x0000,0x0000,0x0000,0x0000,0x0000,0x0000,0x0000
         00 00 00 00
         00 00 00 00
         00 00 00 00
         00 00      
00008BE9 C0 FF 00 00        	.dw	0xffc0,0x0000,0x0a00,0x9700,0xd500,0x1f00,0x0f00,0x0100,0xffc0
         00 0A 00 97
         00 D5 00 1F
         00 0F 00 01
         C0 FF      
00008BF2 00 00 00 0A        	.dw	0x0000,0x0a00,0x1700,0xd500,0x9f00,0x0f00,0x0100,0xffc0,0x0000
         00 17 00 D5
         00 9F 00 0F
         00 01 C0 FF
         00 00      
00008BFB 00 0A 00 57        	.dw	0x0a00,0x5700,0x9500,0x5f00,0x0f00,0x0100,0xffc0,0x0000,0xca00
         00 95 00 5F
         00 0F 00 01
         C0 FF 00 00
         00 CA      
00008C04 00 D7 00 15        	.dw	0xd700,0x1500,0xdf00,0xcf00,0x0100,0xffc0,0x0000,0x0a00,0x5700
         00 DF 00 CF
         00 01 C0 FF
         00 00 00 0A
         00 57      
00008C0D 00 B5 00 BF        	.dw	0xb500,0xbf00,0x4f00,0x0100,0xffc0,0x0000,0x0100,0x0300,0x8d00
         00 4F 00 01
         C0 FF 00 00
         00 01 00 03
         00 8D      
00008C16 00 B4 00 BD        	.dw	0xb400,0xbd00,0x5f00,0x0300,0x0100,0x0000,0xffc0,0x0000,0x0100
         00 5F 00 03
         00 01 00 00
         C0 FF 00 00
         00 01      
00008C1F 00 03 00 4D        	.dw	0x0300,0x4d00,0xb400,0xbd00,0x9f00,0x0300,0x0100,0x0000,0xffc0
         00 B4 00 BD
         00 9F 00 03
         00 01 00 00
         C0 FF      
00008C28 00 00 00 01        	.dw	0x0000,0x0100,0x4300,0x8d00,0xb400,0xbd00,0x9f00,0x4300,0x0100
         00 43 00 8D
         00 B4 00 BD
         00 9F 00 43
         00 01      
00008C31 00 00 C0 FF        	.dw	0x0000,0xffc0,0x0000,0xc100,0xc300,0x0d00,0x3400,0x3d00,0x1f00
         00 00 00 C1
         00 C3 00 0D
         00 34 00 3D
         00 1F      
00008C3A 00 C3 00 C1        	.dw	0xc300,0xc100,0x0000,0xffc0,0x0000,0x0100,0x0300,0x4d00,0xb400
         00 00 C0 FF
         00 00 00 01
         00 03 00 4D
         00 B4      
00008C43 00 BD 00 5F        	.dw	0xbd00,0x5f00,0x4300,0x0100,0x0000,0xffc0,0x0000,0x0e00,0x9f00
         00 43 00 01
         00 00 C0 FF
         00 00 00 0E
         00 9F      
00008C4C 00 D5 00 1D        	.dw	0xd500,0x1d00,0x0d00,0x0000,0xffc0,0x0000,0x0e00,0x1f00,0xd500
         00 0D 00 00
         C0 FF 00 00
         00 0E 00 1F
         00 D5      
00008C55 00 9D 00 0D        	.dw	0x9d00,0x0d00,0x0000,0xffc0,0x0000,0x0e00,0x5f00,0x9500,0x5d00
         00 00 C0 FF
         00 00 00 0E
         00 5F 00 95
         00 5D      
00008C5E 00 0D 00 00        	.dw	0x0d00,0x0000,0xffc0,0x0000,0xce00,0xdf00,0x1500,0x1d00,0xcd00
         C0 FF 00 00
         00 CE 00 DF
         00 15 00 1D
         00 CD      
00008C67 00 C0 C0 FF        	.dw	0xc000,0xffc0,0x0000,0x2100,0xbf00,0xbf00,0x6900,0x2900,0x3300
         00 00 00 21
         00 BF 00 BF
         00 69 00 29
         00 33      
00008C70 00 00 C0 FF        	.dw	0x0000,0xffc0,0x0000,0x2100,0x3f00,0x7f00,0xa900,0xa900,0x3300
         00 00 00 21
         00 3F 00 7F
         00 A9 00 A9
         00 33      
00008C79 00 00 C0 FF        	.dw	0x0000,0xffc0,0x0000,0x2100,0x7f00,0xbf00,0xa900,0x6900,0x3300
         00 00 00 21
         00 7F 00 BF
         00 A9 00 69
         00 33      
00008C82 00 00 C0 FF        	.dw	0x0000,0xffc0,0x0000,0x2100,0xbf00,0x3f00,0x2900,0xa900,0x3300
         00 00 00 21
         00 BF 00 3F
         00 29 00 A9
         00 33      
00008C8B 00 00 C0 FF        	.dw	0x0000,0xffc0,0x0000,0x9100,0xdf00,0x1f00,0x0100,0xffc0,0x0000
         00 00 00 91
         00 DF 00 1F
         00 01 C0 FF
         00 00      
00008C94 00 11 00 DF        	.dw	0x1100,0xdf00,0x9f00,0x0100,0xffc0,0x0000,0x5100,0x9f00,0x9f00
         00 9F 00 01
         C0 FF 00 00
         00 51 00 9F
         00 9F      
00008C9D 00 41 C0 FF        	.dw	0x4100,0xffc0,0x0000,0xd100,0x1f00,0xdf00,0x0100,0xffc0,0x0000
         00 00 00 D1
         00 1F 00 DF
         00 01 C0 FF
         00 00      
00008CA6 00 A1 00 BF        	.dw	0xa100,0xbf00,0x7f00,0x2100,0x0000,0xffc0,0x0000,0x2100,0x7f00
         00 7F 00 21
         00 00 C0 FF
         00 00 00 21
         00 7F      
00008CAF 00 BF 00 A1        	.dw	0xbf00,0xa100,0x0000,0xffc0,0x0000,0x6100,0xbf00,0xbf00,0x6100
         00 00 C0 FF
         00 00 00 61
         00 BF 00 BF
         00 61      
00008CB8 00 00 C0 FF        	.dw	0x0000,0xffc0,0x0000,0xa100,0x3f00,0x3f00,0xa100,0x0000,0xffc0
         00 00 00 A1
         00 3F 00 3F
         00 A1 00 00
         C0 FF      
00008CC1 00 00 00 0E        	.dw	0x0000,0x0e00,0x9f00,0xd100,0x1f00,0x0e00,0x0000,0xffc0,0x0000
         00 9F 00 D1
         00 1F 00 0E
         00 00 C0 FF
         00 00      
00008CCA 00 0E 00 1F        	.dw	0x0e00,0x1f00,0xd100,0x9f00,0x0e00,0x0000,0xffc0,0x0000,0x4e00
         00 D1 00 9F
         00 0E 00 00
         C0 FF 00 00
         00 4E      
00008CD3 00 9F 00 91        	.dw	0x9f00,0x9100,0x9f00,0x4e00,0x0000,0xffc0,0x0000,0xce00,0xdf00
         00 9F 00 4E
         00 00 C0 FF
         00 00 00 CE
         00 DF      
00008CDC 00 11 00 DF        	.dw	0x1100,0xdf00,0xce00,0x0000,0xffc0,0x0000,0x0c00,0x1e00,0xb300
         00 CE 00 00
         C0 FF 00 00
         00 0C 00 1E
         00 B3      
00008CE5 00 A1 00 61        	.dw	0xa100,0x6100,0x3300,0x1e00,0x0c00,0x0000,0xffc0,0x0000,0x0c00
         00 33 00 1E
         00 0C 00 00
         C0 FF 00 00
         00 0C      
00008CEE 00 1E 00 33        	.dw	0x1e00,0x3300,0x6100,0xa100,0xb300,0x1e00,0x0c00,0x0000,0xffc0
         00 61 00 A1
         00 B3 00 1E
         00 0C 00 00
         C0 FF      
00008CF7 00 00 00 0C        	.dw	0x0000,0x0c00,0x1e00,0x7300,0xa100,0xe100,0x7300,0x1e00,0x0c00
         00 1E 00 73
         00 A1 00 E1
         00 73 00 1E
         00 0C      
00008D00 00 00 C0 FF        	.dw	0x0000,0xffc0,0x0000,0xcc00,0xde00,0x3300,0x2100,0x2100,0x3300
         00 00 00 CC
         00 DE 00 33
         00 21 00 21
         00 33      
00008D09 00 DE 00 CC        	.dw	0xde00,0xcc00,0x0000,0xffc0,0x0000,0x1000,0x1e00,0x9f00,0xc100
         00 00 C0 FF
         00 00 00 10
         00 1E 00 9F
         00 C1      
00008D12 00 1F 00 1F        	.dw	0x1f00,0x1f00,0x0100,0xffc0,0x0000,0x1000,0x1e00,0x1f00,0xc100
         00 01 C0 FF
         00 00 00 10
         00 1E 00 1F
         00 C1      
00008D1B 00 9F 00 1F        	.dw	0x9f00,0x1f00,0x0100,0xffc0,0x0000,0x1000,0x1e00,0x5f00,0x8100
         00 01 C0 FF
         00 00 00 10
         00 1E 00 5F
         00 81      
00008D24 00 5F 00 1F        	.dw	0x5f00,0x1f00,0x0100,0xffc0,0x0000,0x1000,0xde00,0xdf00,0x0100
         00 01 C0 FF
         00 00 00 10
         00 DE 00 DF
         00 01      
00008D2D 00 DF 00 DF        	.dw	0xdf00,0xdf00,0x0100,0xffc0,0x0000,0x2000,0xbe00,0xbf00,0xe100
         00 01 C0 FF
         00 00 00 20
         00 BE 00 BF
         00 E1      
00008D36 00 41 00 21        	.dw	0x4100,0x2100,0x3f00,0x2000,0x0000,0x0000,0xffc0,0x0000,0x2000
         00 3F 00 20
         00 00 00 00
         C0 FF 00 00
         00 20      
00008D3F 00 3E 00 3F        	.dw	0x3e00,0x3f00,0x6100,0xc100,0xa100,0xbf00,0x2000,0x0000,0xffc0
         00 61 00 C1
         00 A1 00 BF
         00 20 00 00
         C0 FF      
00008D48 00 00 00 20        	.dw	0x0000,0x2000,0x3e00,0x7f00,0xe100,0x8100,0xa100,0x7f00,0x2000
         00 3E 00 7F
         00 E1 00 81
         00 A1 00 7F
         00 20      
00008D51 00 00 C0 FF        	.dw	0x0000,0xffc0,0x0000,0x2000,0xbe00,0xbf00,0x2100,0x0100,0x2100
         00 00 00 20
         00 BE 00 BF
         00 21 00 01
         00 21      
00008D5A 00 BF 00 A0        	.dw	0xbf00,0xa000,0x0000,0xffc0,0x0000,0x10c0,0x1c40,0x5f80,0xc600
         00 00 C0 FF
         00 00 C0 10
         40 1C 80 5F
         00 C6      
00008D63 00 98 00 90        	.dw	0x9800,0x9000,0xffc0,0x0000,0x2000,0x3000,0x3900,0x6f00,0xc700
         C0 FF 00 00
         00 20 00 30
         00 39 00 6F
         00 C7      
00008D6C 00 A9 00 B0        	.dw	0xa900,0xb000,0x2000,0x0000,0xffc0,0x0000,0x7f00,0x8280,0x9200
         00 20 00 00
         C0 FF 00 00
         00 7F 80 82
         00 92      
00008D75 00 6C 00 00        	.dw	0x6c00,0x0000,0xffc0,0x0000,0x1100,0x5f00,0x9f00,0x9000,0x5f00
         C0 FF 00 00
         00 11 00 5F
         00 9F 00 90
         00 5F      
00008D7E 00 4F 00 01        	.dw	0x4f00,0x0100,0xffc0,0x0000,0x4e00,0x9f00,0x9100,0x5f00,0x4e00
         C0 FF 00 00
         00 4E 00 9F
         00 91 00 5F
         00 4E      
00008D87 00 00 C0 FF        	.dw	0x0000,0xffc0,0x0000,0x4a00,0x9700,0x9500,0x5f00,0x4f00,0x0100
         00 00 00 4A
         00 97 00 95
         00 5F 00 4F
         00 01      
00008D90 C0 FF              	.dw	0xffc0
                            	
                            	//;Sunnorth code.,0x;Written by: Bai-yawei.,0x;small1.BM_,0x;width=16(2byte)
                            	//		height=1264
                            	.public small1
                            	small1:
                            	//.dw	0xffc0,0x0000,
00008D91 C0 FF 00 00        	.dw	0xffc0,0x0000,0x0000,0x0000,0x0000,0xffc0,0x0000
         00 00 00 00
         00 00 C0 FF
         00 00      
00008D98 00 00 00 FD        	.dw	0x0000,0xfd00,0x0000,0x0000,0xffc0,0x0000,0x0000,0xe000,0x0000
         00 00 00 00
         C0 FF 00 00
         00 00 00 E0
         00 00      
00008DA1 00 E0 00 00        	.dw	0xe000,0x0000,0xffc0,0x0000,0x1700,0x3c00,0xd400,0x1700,0x3c00
         C0 FF 00 00
         00 17 00 3C
         00 D4 00 17
         00 3C      
00008DAA 00 D4 C0 FF        	.dw	0xd400,0xffc0,0x0000,0x3100,0x4880,0xfbc0,0x4480,0x2300,0x0000
         00 00 00 31
         80 48 C0 FB
         80 44 00 23
         00 00      
00008DB3 C0 FF 00 00        	.dw	0xffc0,0x0000,0x6000,0x9100,0x6200,0x0400,0x1800,0x2000,0x4600
         00 60 00 91
         00 62 00 04
         00 18 00 20
         00 46      
00008DBC 00 89 00 06        	.dw	0x8900,0x0600,0xffc0,0x0000,0x0e00,0x0900,0x7100,0x9d00,0xa200
         C0 FF 00 00
         00 0E 00 09
         00 71 00 9D
         00 A2      
00008DC5 00 C5 00 19        	.dw	0xc500,0x1900,0x1200,0x0000,0xffc0,0x0000,0xe000,0x0000,0xffc0
         00 12 00 00
         C0 FF 00 00
         00 E0 00 00
         C0 FF      
00008DCE 00 00 00 3F        	.dw	0x0000,0x3f00,0x4080,0x8040,0x0000,0xffc0,0x0000,0x8040,0x4080
         80 40 40 80
         00 00 C0 FF
         00 00 40 80
         80 40      
00008DD7 00 3F 00 00        	.dw	0x3f00,0x0000,0xffc0,0x0000,0x5000,0x2000,0xf800,0x2000,0x5000
         C0 FF 00 00
         00 50 00 20
         00 F8 00 20
         00 50      
00008DE0 00 00 C0 FF        	.dw	0x0000,0xffc0,0x0000,0x0800,0x0800,0x3e00,0x0800,0x0800,0x0000
         00 00 00 08
         00 08 00 3E
         00 08 00 08
         00 00      
00008DE9 C0 FF 00 00        	.dw	0xffc0,0x0000,0x0140,0x0180,0x0000,0xffc0,0x0000,0x0400,0x0400
         40 01 80 01
         00 00 C0 FF
         00 00 00 04
         00 04      
00008DF2 00 04 00 00        	.dw	0x0400,0x0000,0xffc0,0x0000,0x0000,0x0100,0x0000,0xffc0,0x0000
         C0 FF 00 00
         00 00 00 01
         00 00 C0 FF
         00 00      
00008DFB 00 03 00 3C        	.dw	0x0300,0x3c00,0xc000,0xffc0,0x0000,0x7e00,0x8100,0x8100,0x8100
         00 C0 C0 FF
         00 00 00 7E
         00 81 00 81
         00 81      
00008E04 00 7E 00 00        	.dw	0x7e00,0x0000,0xffc0,0x0000,0x0000,0x8100,0xff00,0x0100,0x0000
         C0 FF 00 00
         00 00 00 81
         00 FF 00 01
         00 00      
00008E0D 00 00 C0 FF        	.dw	0x0000,0xffc0,0x0000,0x4100,0x8300,0x8500,0x8900,0x7300,0x0000
         00 00 00 41
         00 83 00 85
         00 89 00 73
         00 00      
00008E16 C0 FF 00 00        	.dw	0xffc0,0x0000,0x4100,0x8100,0x9100,0x9100,0x6e00,0x0000,0xffc0
         00 41 00 81
         00 91 00 91
         00 6E 00 00
         C0 FF      
00008E1F 00 00 00 0C        	.dw	0x0000,0x0c00,0x3400,0x4400,0xff00,0x0400,0x0000,0xffc0,0x0000
         00 34 00 44
         00 FF 00 04
         00 00 C0 FF
         00 00      
00008E28 00 01 00 61        	.dw	0x0100,0x6100,0xa100,0x9100,0x8e00,0x0000,0xffc0,0x0000,0x1e00
         00 A1 00 91
         00 8E 00 00
         C0 FF 00 00
         00 1E      
00008E31 00 69 00 51        	.dw	0x6900,0x5100,0x9100,0x8e00,0x0000,0xffc0,0x0000,0x4000,0x8000
         00 91 00 8E
         00 00 C0 FF
         00 00 00 40
         00 80      
00008E3A 00 83 00 9C        	.dw	0x8300,0x9c00,0xe000,0x0000,0xffc0,0x0000,0x6600,0x9900,0x9100
         00 E0 00 00
         C0 FF 00 00
         00 66 00 99
         00 91      
00008E43 00 99 00 66        	.dw	0x9900,0x6600,0x0000,0xffc0,0x0000,0x7100,0x8900,0x8a00,0x8e00
         00 00 C0 FF
         00 00 00 71
         00 89 00 8A
         00 8E      
00008E4C 00 78 00 00        	.dw	0x7800,0x0000,0xffc0,0x0000,0x0000,0x1100,0x0000,0xffc0,0x0000
         C0 FF 00 00
         00 00 00 11
         00 00 C0 FF
         00 00      
00008E55 00 00 40 11        	.dw	0x0000,0x1140,0x0180,0xffc0,0x0000,0x0800,0x1400,0x1400,0x1400
         80 01 C0 FF
         00 00 00 08
         00 14 00 14
         00 14      
00008E5E 00 22 00 00        	.dw	0x2200,0x0000,0xffc0,0x0000,0x1400,0x1400,0x1400,0x1400,0x1400
         C0 FF 00 00
         00 14 00 14
         00 14 00 14
         00 14      
00008E67 00 00 C0 FF        	.dw	0x0000,0xffc0,0x0000,0x2200,0x1400,0x1400,0x1400,0x0800,0x0000
         00 00 00 22
         00 14 00 14
         00 14 00 08
         00 00      
00008E70 C0 FF 00 00        	.dw	0xffc0,0x0000,0x4000,0x8d00,0x9000,0x6000,0x0000,0xffc0,0x0000
         00 40 00 8D
         00 90 00 60
         00 00 C0 FF
         00 00      
00008E79 00 1E 00 21        	.dw	0x1e00,0x2100,0x4c80,0x9240,0xa240,0xac40,0xb440,0x4480,0x3d00
         80 4C 40 92
         40 A2 40 AC
         40 B4 80 44
         00 3D      
00008E82 00 00 C0 FF        	.dw	0x0000,0xffc0,0x0000,0x0100,0x0700,0x3d00,0xc400,0x3d00,0x0700
         00 00 00 01
         00 07 00 3D
         00 C4 00 3D
         00 07      
00008E8B 00 01 00 00        	.dw	0x0100,0x0000,0xffc0,0x0000,0x8100,0xff00,0x9100,0x9100,0x9100
         C0 FF 00 00
         00 81 00 FF
         00 91 00 91
         00 91      
00008E94 00 6E 00 00        	.dw	0x6e00,0x0000,0xffc0,0x0000,0x3c00,0x4200,0x8100,0x8100,0x8100
         C0 FF 00 00
         00 3C 00 42
         00 81 00 81
         00 81      
00008E9D 00 C2 00 00        	.dw	0xc200,0x0000,0xffc0,0x0000,0x8100,0xff00,0x8100,0x8100,0x8100
         C0 FF 00 00
         00 81 00 FF
         00 81 00 81
         00 81      
00008EA6 00 42 00 3C        	.dw	0x4200,0x3c00,0x0000,0xffc0,0x0000,0x8100,0xff00,0x9100,0xb900
         00 00 C0 FF
         00 00 00 81
         00 FF 00 91
         00 B9      
00008EAF 00 81 00 C3        	.dw	0x8100,0xc300,0x0000,0xffc0,0x0000,0x8100,0xff00,0x9100,0xb800
         00 00 C0 FF
         00 00 00 81
         00 FF 00 91
         00 B8      
00008EB8 00 80 00 C0        	.dw	0x8000,0xc000,0xffc0,0x0000,0x3c00,0x4200,0x8100,0x8100,0x8900
         C0 FF 00 00
         00 3C 00 42
         00 81 00 81
         00 89      
00008EC1 00 CE 00 08        	.dw	0xce00,0x0800,0xffc0,0x0000,0x8100,0xff00,0x9100,0x1000,0x9100
         C0 FF 00 00
         00 81 00 FF
         00 91 00 10
         00 91      
00008ECA 00 FF 00 81        	.dw	0xff00,0x8100,0x0000,0xffc0,0x0000,0x8100,0xff00,0x8100,0x0000
         00 00 C0 FF
         00 00 00 81
         00 FF 00 81
         00 00      
00008ED3 C0 FF 00 00        	.dw	0xffc0,0x0000,0x0100,0x8100,0xfe00,0x8000,0xffc0,0x0000,0x8100
         00 01 00 81
         00 FE 00 80
         C0 FF 00 00
         00 81      
00008EDC 00 FF 00 91        	.dw	0xff00,0x9100,0x2800,0xc500,0x8300,0x8100,0x0100,0xffc0,0x0000
         00 28 00 C5
         00 83 00 81
         00 01 C0 FF
         00 00      
00008EE5 00 81 00 FF        	.dw	0x8100,0xff00,0x8100,0x0100,0x0100,0x0300,0x0000,0xffc0,0x0000
         00 81 00 01
         00 01 00 03
         00 00 C0 FF
         00 00      
00008EEE 00 81 00 FF        	.dw	0x8100,0xff00,0xe100,0x1c00,0x0300,0x1c00,0xe100,0xff00,0x8100
         00 E1 00 1C
         00 03 00 1C
         00 E1 00 FF
         00 81      
00008EF7 00 00 C0 FF        	.dw	0x0000,0xffc0,0x0000,0x8100,0xff00,0x2100,0x1800,0x8400,0xff00
         00 00 00 81
         00 FF 00 21
         00 18 00 84
         00 FF      
00008F00 00 80 00 00        	.dw	0x8000,0x0000,0xffc0,0x0000,0x3c00,0x4200,0x8100,0x8100,0x8100
         C0 FF 00 00
         00 3C 00 42
         00 81 00 81
         00 81      
00008F09 00 42 00 3C        	.dw	0x4200,0x3c00,0x0000,0xffc0,0x0000,0x8100,0xff00,0x8900,0x8800
         00 00 C0 FF
         00 00 00 81
         00 FF 00 89
         00 88      
00008F12 00 88 00 70        	.dw	0x8800,0x7000,0x0000,0xffc0,0x0000,0x3c00,0x4200,0x8100,0x8100
         00 00 C0 FF
         00 00 00 3C
         00 42 00 81
         00 81      
00008F1B 80 81 40 42        	.dw	0x8180,0x4240,0x3c40,0x0000,0xffc0,0x0000,0x8100,0xff00,0x9100
         40 3C 00 00
         C0 FF 00 00
         00 81 00 FF
         00 91      
00008F24 00 98 00 96        	.dw	0x9800,0x9600,0x6100,0x0100,0xffc0,0x0000,0x6300,0x9100,0x8900
         00 61 00 01
         C0 FF 00 00
         00 63 00 91
         00 89      
00008F2D 00 C6 00 00        	.dw	0xc600,0x0000,0xffc0,0x0000,0xc000,0x8000,0x8100,0xff00,0x8100
         C0 FF 00 00
         00 C0 00 80
         00 81 00 FF
         00 81      
00008F36 00 80 00 C0        	.dw	0x8000,0xc000,0x0000,0xffc0,0x0000,0x8000,0xfe00,0x8100,0x0100
         00 00 C0 FF
         00 00 00 80
         00 FE 00 81
         00 01      
00008F3F 00 81 00 FE        	.dw	0x8100,0xfe00,0x8000,0x0000,0xffc0,0x0000,0x8000,0xe000,0x9c00
         00 80 00 00
         C0 FF 00 00
         00 80 00 E0
         00 9C      
00008F48 00 03 00 9C        	.dw	0x0300,0x9c00,0xe000,0x8000,0xffc0,0x0000,0x8000,0xe000,0x9c00
         00 E0 00 80
         C0 FF 00 00
         00 80 00 E0
         00 9C      
00008F51 00 03 00 8C        	.dw	0x0300,0x8c00,0xf000,0x8c00,0x0300,0x9c00,0xe000,0x8000,0xffc0
         00 F0 00 8C
         00 03 00 9C
         00 E0 00 80
         C0 FF      
00008F5A 00 00 00 81        	.dw	0x0000,0x8100,0xc300,0xa500,0x1800,0xa500,0xc300,0x8100,0x0000
         00 C3 00 A5
         00 18 00 A5
         00 C3 00 81
         00 00      
00008F63 C0 FF 00 00        	.dw	0xffc0,0x0000,0x8000,0xc000,0xb100,0x0f00,0xb100,0xc000,0x8000
         00 80 00 C0
         00 B1 00 0F
         00 B1 00 C0
         00 80      
00008F6C 00 00 C0 FF        	.dw	0x0000,0xffc0,0x0000,0xc300,0x8500,0x9900,0xa100,0xc100,0x8300
         00 00 00 C3
         00 85 00 99
         00 A1 00 C1
         00 83      
00008F75 00 00 C0 FF        	.dw	0x0000,0xffc0,0x0000,0x0000,0xfbc0,0x8040,0x8040,0xffc0,0x0000
         00 00 00 00
         C0 FB 40 80
         40 80 C0 FF
         00 00      
00008F7E 00 C0 00 3C        	.dw	0xc000,0x3c00,0x0300,0xffc0,0x0000,0x8040,0x8040,0xf7c0,0x0000
         00 03 C0 FF
         00 00 40 80
         40 80 C0 F7
         00 00      
00008F87 C0 FF 00 00        	.dw	0xffc0,0x0000,0x3000,0xc000,0xc000,0x3000,0x0000,0xffc0,0x0000
         00 30 00 C0
         00 C0 00 30
         00 00 C0 FF
         00 00      
[...]
         00 91 00 7E
         00 00 C0 FF
         00 00 00 21
         00 00      
00009329 C0 FF 00 00        	.dw	0xffc0,0x0000,0x0040,0x2180,0x0000,0xffc0,0x0000,0x0800,0x1400
         40 00 80 21
         00 00 C0 FF
         00 00 00 08
         00 14      
00009332 00 14 00 22        	.dw	0x1400,0x2200,0xffc0,0x0000,0x1400,0x1400,0x1400,0x1400,0x0000
         C0 FF 00 00
         00 14 00 14
         00 14 00 14
         00 00      
0000933B C0 FF 00 00        	.dw	0xffc0,0x0000,0x2200,0x1400,0x1400,0x0800,0xffc0,0x0000,0x4000
         00 22 00 14
         00 14 00 08
         C0 FF 00 00
         00 40      
00009344 00 8D 00 90        	.dw	0x8d00,0x9000,0x6000,0x0000,0xffc0,0x0000,0x1e00,0x2100,0x5c80
         00 60 00 00
         C0 FF 00 00
         00 1E 00 21
         80 5C      
0000934D 40 A2 40 A2        	.dw	0xa240,0xa240,0x9e40,0x6280,0x3d00,0x0000,0xffc0,0x0000,0x0300
         40 9E 80 62
         00 3D 00 00
         C0 FF 00 00
         00 03      
00009356 00 7C 00 84        	.dw	0x7c00,0x8400,0x7c00,0x0300,0x0000,0xffc0,0x0000,0xff00,0x9100
         00 7C 00 03
         00 00 C0 FF
         00 00 00 FF
         00 91      
0000935F 00 91 00 91        	.dw	0x9100,0x9100,0x6e00,0x0000,0xffc0,0x0000,0x3c00,0x4200,0x8100
         00 6E 00 00
         C0 FF 00 00
         00 3C 00 42
         00 81      
00009368 00 81 00 81        	.dw	0x8100,0x8100,0x6600,0x0000,0xffc0,0x0000,0xff00,0x8100,0x8100
         00 66 00 00
         C0 FF 00 00
         00 FF 00 81
         00 81      
00009371 00 42 00 3C        	.dw	0x4200,0x3c00,0x0000,0xffc0,0x0000,0xff00,0x9100,0x9100,0x9100
         00 00 C0 FF
         00 00 00 FF
         00 91 00 91
         00 91      
0000937A 00 91 00 00        	.dw	0x9100,0x0000,0xffc0,0x0000,0xff00,0x9000,0x9000,0x9000,0x8000
         C0 FF 00 00
         00 FF 00 90
         00 90 00 90
         00 80      
00009383 C0 FF 00 00        	.dw	0xffc0,0x0000,0x3c00,0x4200,0x8100,0x8900,0x8900,0x6e00,0x0000
         00 3C 00 42
         00 81 00 89
         00 89 00 6E
         00 00      
0000938C C0 FF 00 00        	.dw	0xffc0,0x0000,0xff00,0x1000,0x1000,0x1000,0xff00,0x0000,0xffc0
         00 FF 00 10
         00 10 00 10
         00 FF 00 00
         C0 FF      
00009395 00 00 00 FF        	.dw	0x0000,0xff00,0x0000,0xffc0,0x0000,0x0600,0x0100,0x0100,0xfe00
         00 00 C0 FF
         00 00 00 06
         00 01 00 01
         00 FE      
0000939E 00 00 C0 FF        	.dw	0x0000,0xffc0,0x0000,0xff00,0x1000,0x3800,0x4600,0x8100,0xffc0
         00 00 00 FF
         00 10 00 38
         00 46 00 81
         C0 FF      
000093A7 00 00 00 FF        	.dw	0x0000,0xff00,0x0100,0x0100,0x0100,0xffc0,0x0000,0xff00,0x6000
         00 01 00 01
         00 01 C0 FF
         00 00 00 FF
         00 60      
000093B0 00 1E 00 01        	.dw	0x1e00,0x0100,0x1e00,0x6000,0xff00,0x0000,0xffc0,0x0000,0xff00
         00 1E 00 60
         00 FF 00 00
         C0 FF 00 00
         00 FF      
000093B9 00 40 00 30        	.dw	0x4000,0x3000,0x0c00,0x0200,0xff00,0x0000,0xffc0,0x0000,0x3c00
         00 0C 00 02
         00 FF 00 00
         C0 FF 00 00
         00 3C      
000093C2 00 42 00 81        	.dw	0x4200,0x8100,0x8100,0x4200,0x3c00,0x0000,0xffc0,0x0000,0xff00
         00 81 00 42
         00 3C 00 00
         C0 FF 00 00
         00 FF      
000093CB 00 88 00 88        	.dw	0x8800,0x8800,0x8800,0x7000,0x0000,0xffc0,0x0000,0x3c00,0x4200
         00 88 00 70
         00 00 C0 FF
         00 00 00 3C
         00 42      
000093D4 00 81 00 83        	.dw	0x8100,0x8300,0x4200,0x3d80,0x0000,0xffc0,0x0000,0xff00,0x9000
         00 42 80 3D
         00 00 C0 FF
         00 00 00 FF
         00 90      
000093DD 00 98 00 94        	.dw	0x9800,0x9400,0x6200,0x0100,0xffc0,0x0000,0x6600,0x9100,0x9100
         00 62 00 01
         C0 FF 00 00
         00 66 00 91
         00 91      
000093E6 00 91 00 4E        	.dw	0x9100,0x4e00,0x0000,0xffc0,0x0000,0x8000,0x8000,0xff00,0x8000
         00 00 C0 FF
         00 00 00 80
         00 80 00 FF
         00 80      
000093EF 00 80 C0 FF        	.dw	0x8000,0xffc0,0x0000,0xfc00,0x0200,0x0100,0x0100,0x0200,0xfc00
         00 00 00 FC
         00 02 00 01
         00 01 00 02
         00 FC      
000093F8 00 00 C0 FF        	.dw	0x0000,0xffc0,0x0000,0xc000,0x3e00,0x0100,0x3e00,0xc000,0xffc0
         00 00 00 C0
         00 3E 00 01
         00 3E 00 C0
         C0 FF      
00009401 00 00 00 FE        	.dw	0x0000,0xfe00,0x0100,0x7e00,0x8000,0x7e00,0x0100,0xfe00,0x0000
         00 01 00 7E
         00 80 00 7E
         00 01 00 FE
         00 00      
0000940A C0 FF 00 00        	.dw	0xffc0,0x0000,0x8100,0x6600,0x1800,0x1800,0x6600,0x8100,0xffc0
         00 81 00 66
         00 18 00 18
         00 66 00 81
         C0 FF      
00009413 00 00 00 80        	.dw	0x0000,0x8000,0x6000,0x1f00,0x6000,0x8000,0xffc0,0x0000,0x8300
         00 60 00 1F
         00 60 00 80
         C0 FF 00 00
         00 83      
0000941C 00 85 00 99        	.dw	0x8500,0x9900,0xa100,0xc100,0x0000,0xffc0,0x0000,0xf7c0,0x8040
         00 A1 00 C1
         00 00 C0 FF
         00 00 C0 F7
         40 80      
00009425 00 00 C0 FF        	.dw	0x0000,0xffc0,0x0000,0xc000,0x3c00,0x0300,0x00c0,0xffc0,0x0000
         00 00 00 C0
         00 3C 00 03
         C0 00 C0 FF
         00 00      
0000942E 40 80 C0 F7        	.dw	0x8040,0xf7c0,0x0000,0xffc0,0x0000,0x7000,0x8000,0x7000,0x0000
         00 00 C0 FF
         00 00 00 70
         00 80 00 70
         00 00      
00009437 C0 FF 00 00        	.dw	0xffc0,0x0000,0x0080,0x0080,0x0080,0x0080,0x0080,0xffc0,0x0000
         80 00 80 00
         80 00 80 00
         80 00 C0 FF
         00 00      
00009440 00 80 00 40        	.dw	0x8000,0x4000,0x0000,0xffc0,0x0000,0x2600,0x2900,0x2900,0x1f00
         00 00 C0 FF
         00 00 00 26
         00 29 00 29
         00 1F      
00009449 00 00 C0 FF        	.dw	0x0000,0xffc0,0x0000,0xff00,0x1200,0x2100,0x1e00,0x0000,0xffc0
         00 00 00 FF
         00 12 00 21
         00 1E 00 00
         C0 FF      
00009452 00 00 00 1E        	.dw	0x0000,0x1e00,0x2100,0x2100,0x1200,0x0000,0xffc0,0x0000,0x1e00
         00 21 00 21
         00 12 00 00
         C0 FF 00 00
         00 1E      
0000945B 00 21 00 12        	.dw	0x2100,0x1200,0xff00,0x0000,0xffc0,0x0000,0x1e00,0x2900,0x2900
         00 FF 00 00
         C0 FF 00 00
         00 1E 00 29
         00 29      
00009464 00 1A 00 00        	.dw	0x1a00,0x0000,0xffc0,0x0000,0x2000,0xff00,0xa000,0x0000,0xffc0
         C0 FF 00 00
         00 20 00 FF
         00 A0 00 00
         C0 FF      
0000946D 00 00 40 1E        	.dw	0x0000,0x1e40,0x2140,0x1240,0x3f80,0x0000,0xffc0,0x0000,0xff00
         40 21 40 12
         80 3F 00 00
         C0 FF 00 00
         00 FF      
00009476 00 10 00 20        	.dw	0x1000,0x2000,0x1f00,0x0000,0xffc0,0x0000,0xbf00,0x0000,0xffc0
         00 1F 00 00
         C0 FF 00 00
         00 BF 00 00
         C0 FF      
0000947F 00 00 40 00        	.dw	0x0000,0x0040,0xbfc0,0x0000,0xffc0,0x0000,0xff00,0x0800,0x1400
         C0 BF 00 00
         C0 FF 00 00
         00 FF 00 08
         00 14      
00009488 00 23 00 00        	.dw	0x2300,0x0000,0xffc0,0x0000,0xff00,0x0000,0xffc0,0x0000,0x3f00
         C0 FF 00 00
         00 FF 00 00
         C0 FF 00 00
         00 3F      
00009491 00 10 00 20        	.dw	0x1000,0x2000,0x1f00,0x1000,0x2000,0x3f00,0x0000,0xffc0,0x0000
         00 1F 00 10
         00 20 00 3F
         00 00 C0 FF
         00 00      
0000949A 00 3F 00 10        	.dw	0x3f00,0x1000,0x2000,0x1f00,0x0000,0xffc0,0x0000,0x1e00,0x2100
         00 20 00 1F
         00 00 C0 FF
         00 00 00 1E
         00 21      
000094A3 00 21 00 1E        	.dw	0x2100,0x1e00,0x0000,0xffc0,0x0000,0x3fc0,0x1200,0x2100,0x1e00
         00 00 C0 FF
         00 00 C0 3F
         00 12 00 21
         00 1E      
000094AC 00 00 C0 FF        	.dw	0x0000,0xffc0,0x0000,0x1e00,0x2100,0x1200,0x3fc0,0x0000,0xffc0
         00 00 00 1E
         00 21 00 12
         C0 3F 00 00
         C0 FF      
000094B5 00 00 00 3F        	.dw	0x0000,0x3f00,0x1000,0x2000,0x0000,0xffc0,0x0000,0x3200,0x2900
         00 10 00 20
         00 00 C0 FF
         00 00 00 32
         00 29      
000094BE 00 25 00 12        	.dw	0x2500,0x1200,0x0000,0xffc0,0x0000,0x2000,0xff00,0x2100,0x0000
         00 00 C0 FF
         00 00 00 20
         00 FF 00 21
         00 00      
000094C7 C0 FF 00 00        	.dw	0xffc0,0x0000,0x3e00,0x0100,0x0200,0x3f00,0x0000,0xffc0,0x0000
         00 3E 00 01
         00 02 00 3F
         00 00 C0 FF
         00 00      
000094D0 00 30 00 0E        	.dw	0x3000,0x0e00,0x0100,0x0e00,0x3000,0xffc0,0x0000,0x3e00,0x0100
         00 01 00 0E
         00 30 C0 FF
         00 00 00 3E
         00 01      
000094D9 00 1E 00 20        	.dw	0x1e00,0x2000,0x1e00,0x0100,0x3e00,0x0000,0xffc0,0x0000,0x2100
         00 1E 00 01
         00 3E 00 00
         C0 FF 00 00
         00 21      
000094E2 00 12 00 0C        	.dw	0x1200,0x0c00,0x1200,0x2100,0xffc0,0x0000,0x2000,0x1c40,0x0380
         00 12 00 21
         C0 FF 00 00
         00 20 40 1C
         80 03      
000094EB 00 1C 00 20        	.dw	0x1c00,0x2000,0xffc0,0x0000,0x2300,0x2500,0x2900,0x3100,0x0000
         C0 FF 00 00
         00 23 00 25
         00 29 00 31
         00 00      
000094F4 C0 FF 00 00        	.dw	0xffc0,0x0000,0x0800,0xf7c0,0x8040,0x0000,0xffc0,0x0000,0xf7c0
         00 08 C0 F7
         40 80 00 00
         C0 FF 00 00
         C0 F7      
000094FD 00 00 C0 FF        	.dw	0x0000,0xffc0,0x0000,0x8040,0xf7c0,0x0800,0x0000,0xffc0,0x0000
         00 00 40 80
         C0 F7 00 08
         00 00 C0 FF
         00 00      
00009506 00 18 00 10        	.dw	0x1800,0x1000,0x1800,0x0800,0x1000,0x0000,0xffc0,0x0000,0x3e00
         00 18 00 08
         00 10 00 00
         C0 FF 00 00
         00 3E      
0000950F 00 41 80 94        	.dw	0x4100,0x9480,0x8280,0x9480,0x4100,0x3e00,0x0000,0xffc0,0x0000
         80 82 80 94
         00 41 00 3E
         00 00 C0 FF
         00 00      
00009518 80 3F 00 02        	.dw	0x3f80,0x0200,0x0100,0x3e00,0x0100,0x0000,0xffc0,0x0000,0x0880
         00 01 00 3E
         00 01 00 00
         C0 FF 00 00
         80 08      
00009521 00 7F 80 88        	.dw	0x7f00,0x8880,0x4080,0x0100,0x0000,0xffc0,0x0000,0x4a00,0x2a00
         80 40 00 01
         00 00 C0 FF
         00 00 00 4A
         00 2A      
0000952A 80 1F 00 2A        	.dw	0x1f80,0x2a00,0x4a00,0x0000,0xffc0,0x0000,0x1e00,0x2100,0x7f80
         00 4A 00 00
         C0 FF 00 00
         00 1E 00 21
         80 7F      
00009533 00 21 00 12        	.dw	0x2100,0x1200,0x0000,0xffc0,0x0000,0x2600,0x4900,0x7f00,0x3e00
         00 00 C0 FF
         00 00 00 26
         00 49 00 7F
         00 3E      
0000953C 00 49 00 3A        	.dw	0x4900,0x3a00,0x0000,0xffc0,0x0000,0x3c00,0x4280,0x4300,0x2400
         00 00 C0 FF
         00 00 00 3C
         80 42 00 43
         00 24      
00009545 00 00 C0 FF        	.dw	0x0000,0xffc0,0x0000,0x3c00,0x4000,0x8000,0x8000,0x4000,0x3c00
         00 00 00 3C
         00 40 00 80
         00 80 00 40
         00 3C      
0000954E 00 00 C0 FF        	.dw	0x0000,0xffc0,0x0000,0x0000,0xbf00,0x0000,0x0000,0xffc0,0x0000
         00 00 00 00
         00 BF 00 00
         00 00 C0 FF
         00 00      
00009557 00 03 80 04        	.dw	0x0300,0x0480,0x5880,0x0100,0x0000,0xffc0,0x0000,0x4000,0xa000
         80 58 00 01
         00 00 C0 FF
         00 00 00 40
         00 A0      
00009560 00 40 00 00        	.dw	0x4000,0x0000,0x0000,0xffc0,0x0000,0x0000,0x0000,0x0000,0x0000
         00 00 C0 FF
         00 00 00 00
         00 00 00 00
         00 00      
00009569 C0 FF 00 00        	.dw	0xffc0,0x0000,0x0000,0x0000,0x0000,0x0000,0x0000,0x0000,0xffc0
         00 00 00 00
         00 00 00 00
         00 00 00 00
         C0 FF      
00009572 00 00 00 00        	.dw	0x0000,0x0000,0x0000,0x0000,0x0000,0x0000,0xffc0,0x0000,0x0000
         00 00 00 00
         00 00 00 00
         C0 FF 00 00
         00 00      
0000957B 00 00 00 00        	.dw	0x0000,0x0000,0x0000,0x0000,0xffc0,0x0000,0x0000,0x0000,0x0000
         00 00 00 00
         C0 FF 00 00
         00 00 00 00
         00 00      
00009584 00 00 00 00        	.dw	0x0000,0x0000,0xffc0,0x0000,0x0000,0x0000,0x0000,0x0000,0x0000
         C0 FF 00 00
         00 00 00 00
         00 00 00 00
         00 00      
0000958D C0 FF 00 00        	.dw	0xffc0,0x0000,0xa600,0xe900,0x2900,0x1f00,0x0000,0xffc0,0x0000
         00 A6 00 E9
         00 29 00 1F
         00 00 C0 FF
         00 00      
00009596 00 26 00 E9        	.dw	0x2600,0xe900,0xa900,0x1f00,0x0000,0xffc0,0x0000,0x6600,0xa900
         00 A9 00 1F
         00 00 C0 FF
         00 00 00 66
         00 A9      
0000959F 00 A9 00 5F        	.dw	0xa900,0x5f00,0x0000,0xffc0,0x0000,0x2600,0xa900,0x2900,0x9f00
         00 00 C0 FF
         00 00 00 26
         00 A9 00 29
         00 9F      
000095A8 00 00 C0 FF        	.dw	0x0000,0xffc0,0x0000,0x1300,0x5500,0xb500,0x4f00,0x0000,0xffc0
         00 00 00 13
         00 55 00 B5
         00 4F 00 00
         C0 FF      
000095B1 00 00 00 03        	.dw	0x0000,0x0300,0x9c00,0xa400,0x5c00,0x0300,0x0000,0xffc0,0x0000
         00 9C 00 A4
         00 5C 00 03
         00 00 C0 FF
         00 00      
000095BA 00 03 00 5C        	.dw	0x0300,0x5c00,0xa400,0x9c00,0x0300,0x0000,0xffc0,0x0000,0x4300
         00 A4 00 9C
         00 03 00 00
         C0 FF 00 00
         00 43      
000095C3 00 9C 00 A4        	.dw	0x9c00,0xa400,0x9c00,0x4300,0x0000,0xffc0,0x0000,0x4300,0x1c00
         00 9C 00 43
         00 00 C0 FF
         00 00 00 43
         00 1C      
000095CC 00 24 00 1C        	.dw	0x2400,0x1c00,0x4300,0x0000,0xffc0,0x0000,0x0300,0x5c00,0xa400
         00 43 00 00
         C0 FF 00 00
         00 03 00 5C
         00 A4      
000095D5 00 5C 00 03        	.dw	0x5c00,0x0300,0x0000,0xffc0,0x0000,0x9e00,0xa900,0x6900,0x1a00
         00 00 C0 FF
         00 00 00 9E
         00 A9 00 69
         00 1A      
000095DE 00 00 C0 FF        	.dw	0x0000,0xffc0,0x0000,0x1e00,0x6900,0xa900,0x9a00,0x0000,0xffc0
         00 00 00 1E
         00 69 00 A9
         00 9A 00 00
         C0 FF      
000095E7 00 00 00 5E        	.dw	0x0000,0x5e00,0xa900,0xa900,0x5a00,0x0000,0xffc0,0x0000,0x9e00
         00 A9 00 A9
         00 5A 00 00
         C0 FF 00 00
         00 9E      
000095F0 00 29 00 29        	.dw	0x2900,0x2900,0x9a00,0x0000,0xffc0,0x0000,0x3f00,0xa900,0xa900
         00 9A 00 00
         C0 FF 00 00
         00 3F 00 A9
         00 A9      
000095F9 00 69 00 29        	.dw	0x6900,0x2900,0x0000,0xffc0,0x0000,0x3f00,0x6900,0xa900,0xa900
         00 00 C0 FF
         00 00 00 3F
         00 69 00 A9
         00 A9      
00009602 00 29 00 00        	.dw	0x2900,0x0000,0xffc0,0x0000,0x3f00,0x6900,0xa900,0x6900,0x2900
         C0 FF 00 00
         00 3F 00 69
         00 A9 00 69
         00 29      
0000960B 00 00 C0 FF        	.dw	0x0000,0xffc0,0x0000,0x3f00,0xa900,0x2900,0xa900,0x2900,0x0000
         00 00 00 3F
         00 A9 00 29
         00 A9 00 29
         00 00      
00009614 C0 FF 00 00        	.dw	0xffc0,0x0000,0x8000,0xbf00,0x4000,0x0000,0xffc0,0x0000,0x4000
         00 80 00 BF
         00 40 00 00
         C0 FF 00 00
         00 40      
0000961D 00 BF 00 80        	.dw	0xbf00,0x8000,0x0000,0xffc0,0x0000,0x4000,0xbf00,0x4000,0x0000
         00 00 C0 FF
         00 00 00 40
         00 BF 00 40
         00 00      
00009626 C0 FF 00 00        	.dw	0xffc0,0x0000,0x8000,0x3f00,0x8000,0x0000,0xffc0,0x0000,0xa100
         00 80 00 3F
         00 80 00 00
         C0 FF 00 00
         00 A1      
0000962F 00 BF 00 61        	.dw	0xbf00,0x6100,0x0000,0xffc0,0x0000,0x6100,0xbf00,0xa100,0x0000
         00 00 C0 FF
         00 00 00 61
         00 BF 00 A1
         00 00      
00009638 C0 FF 00 00        	.dw	0xffc0,0x0000,0x6100,0xbf00,0x6100,0x0000,0xffc0,0x0000,0xa100
         00 61 00 BF
         00 61 00 00
         C0 FF 00 00
         00 A1      
00009641 00 3F 00 A1        	.dw	0x3f00,0xa100,0x0000,0xffc0,0x0000,0x9e00,0xa100,0x6100,0x1e00
         00 00 C0 FF
         00 00 00 9E
         00 A1 00 61
         00 1E      
0000964A 00 00 C0 FF        	.dw	0x0000,0xffc0,0x0000,0x1e00,0x6100,0xa100,0x9e00,0x0000,0xffc0
         00 00 00 1E
         00 61 00 A1
         00 9E 00 00
         C0 FF      
00009653 00 00 00 5E        	.dw	0x0000,0x5e00,0xa100,0xa100,0x5e00,0x0000,0xffc0,0x0000,0x9e00
         00 A1 00 A1
         00 5E 00 00
         C0 FF 00 00
         00 9E      
0000965C 00 21 00 21        	.dw	0x2100,0x2100,0x9e00,0x0000,0xffc0,0x0000,0x0c00,0x9200,0xa100
         00 9E 00 00
         C0 FF 00 00
         00 0C 00 92
         00 A1      
00009665 00 61 00 12        	.dw	0x6100,0x1200,0x0c00,0x0000,0xffc0,0x0000,0x0c00,0x1200,0x6100
         00 0C 00 00
         C0 FF 00 00
         00 0C 00 12
         00 61      
0000966E 00 A1 00 92        	.dw	0xa100,0x9200,0x0c00,0x0000,0xffc0,0x0000,0x0c00,0x5200,0xa100
         00 0C 00 00
         C0 FF 00 00
         00 0C 00 52
         00 A1      
00009677 00 A1 00 52        	.dw	0xa100,0x5200,0x0c00,0x0000,0xffc0,0x0000,0x0c00,0x9200,0x2100
         00 0C 00 00
         C0 FF 00 00
         00 0C 00 92
         00 21      
00009680 00 21 00 92        	.dw	0x2100,0x9200,0x0c00,0x0000,0xffc0,0x0000,0xbe00,0x8100,0x4200
         00 0C 00 00
         C0 FF 00 00
         00 BE 00 81
         00 42      
00009689 00 3F 00 00        	.dw	0x3f00,0x0000,0xffc0,0x0000,0x3e00,0x4100,0x8200,0xbf00,0x0000
         C0 FF 00 00
         00 3E 00 41
         00 82 00 BF
         00 00      
00009692 C0 FF 00 00        	.dw	0xffc0,0x0000,0x3e00,0x4100,0x8200,0x7f00,0x0000,0xffc0,0x0000
         00 3E 00 41
         00 82 00 7F
         00 00 C0 FF
         00 00      
0000969B 00 BE 00 01        	.dw	0xbe00,0x0100,0x0200,0xbf00,0x0000,0xffc0,0x0000,0x3c00,0x8200
         00 02 00 BF
         00 00 C0 FF
         00 00 00 3C
         00 82      
000096A4 00 81 00 41        	.dw	0x8100,0x4100,0x0200,0x3c00,0x0000,0xffc0,0x0000,0x3c00,0x0200
         00 02 00 3C
         00 00 C0 FF
         00 00 00 3C
         00 02      
000096AD 00 41 00 81        	.dw	0x4100,0x8100,0x8200,0x3c00,0x0000,0xffc0,0x0000,0x3c00,0x4200
         00 82 00 3C
         00 00 C0 FF
         00 00 00 3C
         00 42      
000096B6 00 81 00 41        	.dw	0x8100,0x4100,0x0200,0x3c00,0x0000,0xffc0,0x0000,0xbc00,0x0200
         00 02 00 3C
         00 00 C0 FF
         00 00 00 BC
         00 02      
000096BF 00 01 00 01        	.dw	0x0100,0x0100,0x0200,0xbc00,0x0000,0xffc0,0x0000,0x2000,0x1c40
         00 02 00 BC
         00 00 C0 FF
         00 00 00 20
         40 1C      
000096C8 80 43 00 9C        	.dw	0x4380,0x9c00,0xa000,0xffc0,0x0000,0x2000,0x1800,0x4700,0x9800
         00 A0 C0 FF
         00 00 00 20
         00 18 00 47
         00 98      
000096D1 00 A0 C0 FF        	.dw	0xa000,0xffc0,0x0000,0x7f00,0x8280,0x9200,0x6c00,0x0000,0xffc0
         00 00 00 7F
         80 82 00 92
         00 6C 00 00
         C0 FF      
000096DA 00 00 00 50        	.dw	0x0000,0x5000,0x8f00,0x5000,0x9f00,0x0100,0xffc0,0x0000,0x5e00
         00 8F 00 50
         00 9F 00 01
         C0 FF 00 00
         00 5E      
000096E3 00 A1 00 61        	.dw	0xa100,0x6100,0x9e00,0x0000,0xffc0,0x0000,0x6600,0xa900,0x6900
         00 9E 00 00
         C0 FF 00 00
         00 66 00 A9
         00 69      
000096EC 00 9F 00 00        	.dw	0x9f00,0x0000,0xffc0
         C0 FF      
0 error(s), 0 warning(s).

