Sunplus u'nSP Assembler - Ver. 1.8.0
              Listing File Has Been Relocated
00008097                    	.code
                            	//tiny3.BM_
                            	//width=8(1byte)		eight=1143
                            	.public		tiny3
                            	tiny3:		
                            	//	.dw     0x0000,0x0000,0x0000,0x00ff,
00008097 FF 00 00 00        		.dw     0x00ff,0x0000,0x0000,0xff00
         00 00 00 FF
0000809B 00 F4 00 FF        		.dw     0xf400,0xff00,0xc000,0xc000,0xff00,0x085e,0xe85e,0xe848
         00 C0 00 C0
         00 FF 5E 08
         5E E8 48 E8
000080A3 FF 00 24 00        		.dw     0x00ff,0x0024,0x54fe,0x5448,0x00ff,0x0060,0x9066,0x186c
         FE 54 48 54
         FF 00 60 00
         66 90 6C 18
000080AB 0C 92 00 FF        		.dw     0x920c,0xff00,0x0c6a,0x9a6c,0x0c12,0xff00,0xc000,0xff00
         6A 0C 6C 9A
         12 0C 00 FF
         00 C0 00 FF
000080B3 82 7C FF 00        		.dw     0x7c82,0x00ff,0x0082,0x7c00,0xff00,0x50e0,0x5000,0xff00
         82 00 00 7C
         00 FF E0 50
         00 50 00 FF
000080BB 10 10 10 7C        		.dw     0x1010,0x7c10,0x1000,0xff00,0x020c,0x00ff,0x0010,0x1010
         00 10 00 FF
         0C 02 FF 00
         10 00 10 10
000080C3 FF 00 02 00        		.dw     0x00ff,0x0002,0x00ff,0x0002,0x0c30,0xc0ff,0x007c,0x8282
         FF 00 02 00
         30 0C FF C0
         7C 00 82 82
000080CB 00 7C 00 FF        		.dw     0x7c00,0xff00,0x2040,0xfe00,0x00ff,0x0046,0x8a92,0x6200
         40 20 00 FE
         FF 00 46 00
         92 8A 00 62
000080D3 00 FF 92 44        		.dw     0xff00,0x4492,0x926c,0x00ff,0x001c,0x64fe,0x0400,0xff00
         6C 92 FF 00
         1C 00 FE 64
         00 04 00 FF
000080DB A2 E4 9C A2        		.dw     0xe4a2,0xa29c,0x00ff,0x007c,0x9292,0x4c00,0xff00,0x809e
         FF 00 7C 00
         92 92 00 4C
         00 FF 9E 80
000080E3 C0 A0 FF 00        		.dw     0xa0c0,0x00ff,0x006c,0x9292,0x6c00,0xff00,0x6492,0x927c
         6C 00 92 92
         00 6C 00 FF
         92 64 7C 92
000080EB FF 00 24 00        		.dw     0x00ff,0x0024,0x00ff,0x0002,0x2400,0xff00,0x1028,0x2844
         FF 00 02 00
         00 24 00 FF
         28 10 44 28
000080F3 00 FF 28 28        		.dw     0xff00,0x2828,0x2828,0x00ff,0x0044,0x2828,0x10ff,0x0040
         28 28 FF 00
         44 00 28 28
         FF 10 40 00
000080FB A0 9A 00 40        		.dw     0x9aa0,0x4000,0xff00,0x3844,0xb2ca,0xcaba,0x4a34,0x00ff
         00 FF 44 38
         CA B2 BA CA
         34 4A FF 00
00008103 06 00 88 78        		.dw     0x0006,0x7888,0x7806,0x00ff,0x00fe,0x9292,0x926c,0x00ff
         06 78 FF 00
         FE 00 92 92
         6C 92 FF 00
0000810B 38 00 82 44        		.dw     0x0038,0x4482,0x8282,0x4400,0xff00,0xfe82,0x8282,0x7c00
         82 82 00 44
         00 FF 82 FE
         82 82 00 7C
00008113 00 FF 92 FE        		.dw     0xff00,0xfe92,0x9292,0x9200,0xff00,0xfe90,0x9090,0x80ff
         92 92 00 92
         00 FF 90 FE
         90 90 FF 80
0000811B 38 00 82 44        		.dw     0x0038,0x4482,0x9292,0x5c00,0xff00,0xfe10,0x1010,0xfe00
         92 92 00 5C
         00 FF 10 FE
         10 10 00 FE
00008123 00 FF 00 FE        		.dw     0xff00,0xfe00,0xff00,0x0c02,0x02fc,0x00ff,0x00fe,0x1030
         00 FF 02 0C
         FC 02 FF 00
         FE 00 30 10
0000812B 82 4C 00 FF        		.dw     0x4c82,0xff00,0xfe02,0x0202,0xff00,0xfe60,0x1c02,0x1c60
         02 FE 02 02
         00 FF 60 FE
         02 1C 60 1C
00008133 00 FE 00 FF        		.dw     0xfe00,0xff00,0xfe40,0x3018,0x04fe,0x00ff,0x0038,0x4482
         40 FE 18 30
         FE 04 FF 00
         38 00 82 44
0000813B 44 82 00 38        		.dw     0x8244,0x3800,0xff00,0xfe88,0x8888,0x7000,0xff00,0x3844
         00 FF 88 FE
         88 88 00 70
         00 FF 44 38
00008143 86 82 3A 44        		.dw     0x8286,0x443a,0x02ff,0x00fe,0x9090,0x9864,0x02ff,0x0064
         FF 02 FE 00
         90 90 64 98
         FF 02 64 00
0000814B 92 92 4C 92        		.dw     0x9292,0x924c,0x00ff,0x0080,0x80fe,0x8080,0xff00,0xf804
         FF 00 80 00
         FE 80 80 80
         00 FF 04 F8
00008153 02 02 F8 04        		.dw     0x0202,0x04f8,0x00ff,0x00c0,0x3c02,0x3cc0,0xff00,0xfc02
         FF 00 C0 00
         02 3C C0 3C
         00 FF 02 FC
0000815B 80 7C 02 7C        		.dw     0x7c80,0x7c02,0xfc00,0xff00,0x826c,0x1010,0x6c82,0xff00
         00 FC 00 FF
         6C 82 10 10
         82 6C 00 FF
00008163 60 80 60 1E        		.dw     0x8060,0x1e60,0x80ff,0x0086,0x8a92,0xa2c2,0x00ff,0x00fe
         FF 80 86 00
         92 8A C2 A2
         FF 00 FE 00
0000816B 00 82 00 FF        		.dw     0x8200,0xff00,0xc030,0x0c02,0xff00,0x82fe,0x00ff,0x0060
         30 C0 02 0C
         00 FF FE 82
         FF 00 60 00
00008173 60 80 FF 00        		.dw     0x8060,0x00ff,0x0002,0x0202,0x0202,0xff00,0x8040,0x00ff
         02 00 02 02
         02 02 00 FF
         40 80 FF 00
0000817B 4C 00 52 52        		.dw     0x004c,0x5252,0x3e00,0xff00,0xfe22,0x221c,0x00ff,0x001c
         00 3E 00 FF
         22 FE 1C 22
         FF 00 1C 00
00008183 22 22 00 14        		.dw     0x2222,0x1400,0xff00,0x1c22,0x22fe,0x00ff,0x001c,0x2a2a
         00 FF 22 1C
         FE 22 FF 00
         1C 00 2A 2A
0000818B 00 1A 00 FF        		.dw     0x1a00,0xff00,0x107e,0x9000,0xff00,0x122a,0x2a3c,0x00ff
         7E 10 00 90
         00 FF 2A 12
         3C 2A FF 00
00008193 FE 00 20 20        		.dw     0x00fe,0x2020,0x1e00,0xff00,0xbe00,0xff00,0x02bc,0x00ff
         00 1E 00 FF
         00 BE 00 FF
         BC 02 FF 00
0000819B FE 00 14 08        		.dw     0x00fe,0x0814,0x2200,0xff00,0xfe00,0xff00,0x3e10,0x203e
         00 22 00 FF
         00 FE 00 FF
         10 3E 3E 20
000081A3 20 10 00 3E        		.dw     0x1020,0x3e00,0xff00,0x3e10,0x201e,0x00ff,0x001c,0x2222
         00 FF 10 3E
         1E 20 FF 00
         1C 00 22 22
000081AB 00 1C 00 FF        		.dw     0x1c00,0xff00,0x7e48,0x4830,0x00ff,0x0030,0x4848,0x7e00
         48 7E 30 48
         FF 00 30 00
         48 48 00 7E
000081B3 00 FF 10 3E        		.dw     0xff00,0x3e10,0x2000,0xff00,0x122a,0x2a24,0x00ff,0x0020
         00 20 00 FF
         2A 12 24 2A
         FF 00 20 00
000081BB 22 FC FF 00        		.dw     0xfc22,0x00ff,0x003c,0x0204,0x3e00,0xff00,0x300c,0x020c
         3C 00 04 02
         00 3E 00 FF
         0C 30 0C 02
000081C3 FF 30 3C 00        		.dw     0x30ff,0x003c,0x021c,0x201c,0x023c,0x00ff,0x0022,0x1408
         1C 02 1C 20
         3C 02 FF 00
         22 00 08 14
000081CB 22 14 00 FF        		.dw     0x1422,0xff00,0x203a,0x0a3c,0x20ff,0x0022,0x262a,0x3200
         3A 20 3C 0A
         FF 20 22 00
         2A 26 00 32
000081D3 00 FF EE 10        		.dw     0xff00,0x10ee,0x8200,0xff00,0xfe00,0xff00,0x82ee,0x1000
         00 82 00 FF
         00 FE 00 FF
         EE 82 00 10
000081DB 00 FF 40 60        		.dw     0xff00,0x6040,0x6020,0x4000,0xff00,0x7c82,0xaa8a,0xaa82
         20 60 00 40
         00 FF 82 7C
         8A AA 82 AA
000081E3 00 7C 00 FF        		.dw     0x7c00,0xff00,0x7e08,0x0478,0x0400,0xff00,0x127c,0x9242
         08 7E 78 04
         00 04 00 FF
         7C 12 42 92
000081EB 00 04 00 FF        		.dw     0x0400,0xff00,0x9454,0x3e54,0x9400,0xff00,0x3844,0xfe44
         54 94 54 3E
         00 94 00 FF
         44 38 44 FE
000081F3 00 28 00 FF        		.dw     0x2800,0xff00,0x4c92,0x7c92,0x6400,0x00ff,0x0070,0x8a8c
         92 4C 92 7C
         00 64 FF 00
         70 00 8C 8A
000081FB 00 50 00 FF        		.dw     0x5000,0xff00,0x3040,0x8080,0x4030,0x00ff,0x00bc,0x00ff
         40 30 80 80
         30 40 FF 00
         BC 00 FF 00
00008203 04 00 B2 0A        		.dw     0x0004,0x0ab2,0x0400,0xff00,0x40a0,0x4000,0x00ff,0x0000
         00 04 00 FF
         A0 40 00 40
         FF 00 00 00
0000820B 00 FF 00 00        		.dw     0xff00,0x0000,0x0000,0xff00,0x0000,0x0000,0x00ff,0x0000
         00 00 00 FF
         00 00 00 00
         FF 00 00 00
00008213 00 00 00 00        		.dw     0x0000,0x0000,0xff00,0x0000,0x0000,0x00ff,0x0000,0x0000
         00 FF 00 00
         00 00 FF 00
         00 00 00 00
0000821B 00 00 00 FF        		.dw     0x0000,0xff00,0x26aa,0xaa5e,0x00ff,0x0026,0x6aaa,0x9e00
         AA 26 5E AA
         FF 00 26 00
         AA 6A 00 9E
00008223 00 FF AA 66        		.dw     0xff00,0x66aa,0xaa5e,0x00ff,0x00a6,0x2a2a,0x9e00,0xff00
         5E AA FF 00
         A6 00 2A 2A
         00 9E 00 FF
0000822B 52 0C 5C B2        		.dw     0x0c52,0xb25c,0x02ff,0x0002,0x9ca4,0x5c02,0x00ff,0x0002
         FF 02 02 00
         A4 9C 02 5C
         FF 00 02 00
00008233 A4 5C 02 9C        		.dw     0x5ca4,0x9c02,0x00ff,0x0042,0x9ca4,0x9c42,0x00ff,0x0042
         FF 00 42 00
         A4 9C 42 9C
         FF 00 42 00
0000823B 24 1C 42 1C        		.dw     0x1c24,0x1c42,0x00ff,0x0002,0x5ca4,0x5c02,0x00ff,0x001c
         FF 00 02 00
         A4 5C 02 5C
         FF 00 1C 00
00008243 AA AA 00 5A        		.dw     0xaaaa,0x5a00,0xff00,0x1c6a,0xaa9a,0x00ff,0x005c,0xaaaa
         00 FF 6A 1C
         9A AA FF 00
         5C 00 AA AA
0000824B 00 5A 00 FF        		.dw     0x5a00,0xff00,0x9c2a,0x2a9a,0x00ff,0x003e,0xaaea,0x2a2a
         2A 9C 9A 2A
         FF 00 3E 00
         EA AA 2A 2A
00008253 FF 00 3E 00        		.dw     0x00ff,0x003e,0x2aea,0xaa2a,0x00ff,0x003e,0x6aaa,0x6a2a
         EA 2A 2A AA
         FF 00 3E 00
         AA 6A 2A 6A
0000825B FF 00 3E 00        		.dw     0x00ff,0x003e,0xaa2a,0xaa2a,0x00ff,0x0080,0x9e40,0x00ff
         2A AA 2A AA
         FF 00 80 00
         40 9E FF 00
00008263 40 00 80 9E        		.dw     0x0040,0x9e80,0x00ff,0x0040,0x9e40,0x00ff,0x0040,0x1e40
         FF 00 40 00
         40 9E FF 00
         40 00 40 1E
0000826B FF 00 A2 00        		.dw     0x00ff,0x00a2,0xbe62,0x00ff,0x0062,0xbea2,0x00ff,0x0040
         62 BE FF 00
         62 00 A2 BE
         FF 00 40 00
00008273 BE A2 40 A2        		.dw     0xa2be,0xa240,0x00ff,0x00a2,0x3ea2,0x00ff,0x009c,0xa262
         FF 00 A2 00
         A2 3E FF 00
         9C 00 62 A2
0000827B 00 1C 00 FF        		.dw     0x1c00,0xff00,0x1c62,0xa29c,0x00ff,0x005c,0xa2a2,0x5c00
         62 1C 9C A2
         FF 00 5C 00
         A2 A2 00 5C
00008283 00 FF 22 9C        		.dw     0xff00,0x9c22,0x229c,0x00ff,0x001c,0x22a2,0xe222,0x1c00
         9C 22 FF 00
         1C 00 A2 22
         22 E2 00 1C
0000828B 00 FF 22 1C        		.dw     0xff00,0x1c22,0xe2a2,0x221c,0x00ff,0x001c,0x62a2,0xa262
         A2 E2 1C 22
         FF 00 1C 00
         A2 62 62 A2
00008293 00 1C 00 FF        		.dw     0x1c00,0xff00,0x1ca2,0x2222,0xa21c,0x00ff,0x00bc,0x8244
         A2 1C 22 22
         1C A2 FF 00
         BC 00 44 82
0000829B 00 3E 00 FF        		.dw     0x3e00,0xff00,0x3c42,0x84be,0x00ff,0x0040,0xbc82,0x84be
         42 3C BE 84
         FF 00 40 00
         82 BC BE 84
000082A3 00 40 00 FF        		.dw     0x4000,0xff00,0xbc02,0x04be,0x00ff,0x003c,0x8282,0x4202
         02 BC BE 04
         FF 00 3C 00
         82 82 02 42
000082AB 00 3C 00 FF        		.dw     0x3c00,0xff00,0x3c02,0x4282,0x823c,0x00ff,0x003c,0x4282
         02 3C 82 42
         3C 82 FF 00
         3C 00 82 42
000082B3 3C 42 FF 00        		.dw     0x423c,0x00ff,0x00bc,0x0202,0x0202,0xbc00,0xff00,0x203a
         BC 00 02 02
         02 02 00 BC
         00 FF 3A 20
000082BB BC 4A FF A0        		.dw     0x4abc,0xa0ff,0x0020,0x104e,0x90a0,0xff00,0x7c8a,0xa850
         20 00 4E 10
         A0 90 00 FF
         8A 7C 50 A8
000082C3 FF 00 BE 00        		.dw     0x00ff,0x00be,0x50a0,0x5e00,0xff00,0x5ca2,0x629c,0x00ff
         A0 50 00 5E
         00 FF A2 5C
         9C 62 FF 00
000082CB 66 00 6A AA        		.dw     0x0066,0xaa6a,0x9e00,0xff00
         00 9E 00 FF
                            	
                            	
                            	//Sunnorth code.;Written by: Bai-yawei.;large1.BM_;width=16(2byte)		height=1640
                            	.public		large1
                            	large1:
                            	//.dw	0xfff8,0x0000,
000082CF F8 FF 00 00        	.dw	0xfff8,0x0000,0x0000,0x0000,0x0000,0x0000
         00 00 00 00
         00 00 00 00
000082D5 00 00 F8 FF        	.dw	0x0000,0xfff8,0x0000,0x0000,0xfec0,0xfec0,0x0000,0xfff8
         00 00 00 00
         C0 FE C0 FE
         00 00 F8 FF
000082DD 00 00 00 F0        	.dw	0x0000,0xf000,0xf000,0x0000,0x0000,0xf000,0xf000,0x0000
         00 F0 00 00
         00 00 00 F0
         00 F0 00 00
000082E5 F8 FF 00 00        	.dw	0xfff8,0x0000,0x0100,0x27c0,0xffc0,0xf900,0x27c0,0xffc0
         00 01 C0 27
         C0 FF 00 F9
         C0 27 C0 FF
000082ED 00 F9 00 20        	.dw	0xf900,0x2000,0x0000,0xfff8,0x0000,0x3880,0x7cc0,0xc460
         00 00 F8 FF
         00 00 80 38
         C0 7C 60 C4
000082F5 60 C4 C0 77        	.dw	0xc460,0x77c0,0x3380,0x0000,0xfff8,0x0000,0x7040,0xf8c0
         80 33 00 00
         F8 FF 00 00
         40 70 C0 F8
000082FD 80 89 00 FB        	.dw	0x8980,0xfb00,0x7600,0x0c00,0x1b80,0x37c0,0x6440,0xc7c0
         00 76 00 0C
         80 1B C0 37
         40 64 C0 C7
00008305 80 83 00 00        	.dw	0x8380,0x0000,0xfff8,0x0000,0x0380,0x77c0,0xfc40,0x8e40
         F8 FF 00 00
         80 03 C0 77
         40 FC 40 8E
0000830D C0 FB C0 71        	.dw	0xfbc0,0x71c0,0x0340,0x0000,0xfff8,0x0000,0x0000,0xf000
         40 03 00 00
         F8 FF 00 00
         00 00 00 F0
00008315 00 F0 00 00        	.dw	0xf000,0x0000,0xfff8,0x0000,0x7ff0,0xfdf8,0x8008,0x0000
         F8 FF 00 00
         F0 7F F8 FD
         08 80 00 00
0000831D F8 FF 00 00        	.dw	0xfff8,0x0000,0x8008,0xfdf8,0x7ff0,0x0000,0xfff8,0x0000
         08 80 F8 FD
         F0 7F 00 00
         F8 FF 00 00
00008325 00 40 00 58        	.dw	0x4000,0x5800,0xf000,0xf000,0x5800,0x4000,0x0000,0xfff8
         00 F0 00 F0
         00 58 00 40
         00 00 F8 FF
0000832D 00 00 00 04        	.dw	0x0000,0x0400,0x0400,0x3f80,0x3f80,0x0400,0x0400,0x0000
         00 04 80 3F
         80 3F 00 04
         00 04 00 00
00008335 F8 FF 00 00        	.dw	0xfff8,0x0000,0x0020,0x00e0,0x00c0,0x0000,0xfff8,0x0000
         20 00 E0 00
         C0 00 00 00
         F8 FF 00 00
0000833D 00 04 00 04        	.dw	0x0400,0x0400,0x0400,0x0400,0x0000,0xfff8,0x0000,0x00c0
         00 04 00 04
         00 00 F8 FF
         00 00 C0 00
00008345 C0 00 00 00        	.dw	0x00c0,0x0000,0xfff8,0x0000,0x00f0,0x0ff0,0xff00,0xf000
         F8 FF 00 00
         F0 00 F0 0F
         00 FF 00 F0
0000834D 00 00 F8 FF        	.dw	0x0000,0xfff8,0x0000,0x7f80,0xffc0,0x8040,0x8040,0xffc0
         00 00 80 7F
         C0 FF 40 80
         40 80 C0 FF
00008355 80 7F 00 00        	.dw	0x7f80,0x0000,0xfff8,0x0000,0x0000,0x4000,0x4000,0xffc0
         F8 FF 00 00
         00 00 00 40
         00 40 C0 FF
0000835D C0 FF 00 00        	.dw	0xffc0,0x0000,0x0000,0xfff8,0x0000,0x61c0,0xe3c0,0x8640
         00 00 F8 FF
         00 00 C0 61
         C0 E3 40 86
00008365 40 8C 40 F8        	.dw	0x8c40,0xf840,0x7040,0x0000,0xfff8,0x0000,0x4080,0xc0c0
         40 70 00 00
         F8 FF 00 00
         80 40 C0 C0
0000836D 40 88 40 88        	.dw	0x8840,0x8840,0xffc0,0x7780,0x0000,0xfff8,0x0000,0x0300
         C0 FF 80 77
         00 00 F8 FF
         00 00 00 03
00008375 00 0F 00 3D        	.dw	0x0f00,0x3d00,0x7100,0xffc0,0xffc0,0x0000,0xfff8,0x0000
         00 71 C0 FF
         C0 FF 00 00
         F8 FF 00 00
0000837D 80 FC C0 FC        	.dw	0xfc80,0xfcc0,0x8840,0x8840,0x8fc0,0x8780,0x0000,0xfff8
         40 88 40 88
         C0 8F 80 87
         00 00 F8 FF
00008385 00 00 80 7F        	.dw	0x0000,0x7f80,0xffc0,0x8840,0x8840,0xcfc0,0x4780,0x0000
         C0 FF 40 88
         40 88 C0 CF
         80 47 00 00
0000838D F8 FF 00 00        	.dw	0xfff8,0x0000,0x8000,0x81c0,0x8fc0,0xbe00,0xf000,0xc000
         00 80 C0 81
         C0 8F 00 BE
         00 F0 00 C0
00008395 00 00 F8 FF        	.dw	0x0000,0xfff8,0x0000,0x7780,0xffc0,0x8840,0x8840,0xffc0
         00 00 80 77
         C0 FF 40 88
         40 88 C0 FF
0000839D 80 77 00 00        	.dw	0x7780,0x0000,0xfff8,0x0000,0x7880,0xfcc0,0x8440,0x8440
         F8 FF 00 00
         80 78 C0 FC
         40 84 40 84
000083A5 C0 FF 80 7F        	.dw	0xffc0,0x7f80,0x0000,0xfff8,0x0000,0x30c0,0x30c0,0x0000
         00 00 F8 FF
         00 00 C0 30
         C0 30 00 00
000083AD F8 FF 00 00        	.dw	0xfff8,0x0000,0x0020,0x30e0,0x30c0,0x0000,0xfff8,0x0000
         20 00 E0 30
         C0 30 00 00
         F8 FF 00 00
000083B5 00 04 00 0E        	.dw	0x0400,0x0e00,0x1b00,0x3180,0x60c0,0x4040,0x0000,0xfff8
         00 1B 80 31
         C0 60 40 40
         00 00 F8 FF
000083BD 00 00 00 12        	.dw	0x0000,0x1200,0x1200,0x1200,0x1200,0x1200,0x1200,0x0000
         00 12 00 12
         00 12 00 12
         00 12 00 00
000083C5 F8 FF 00 00        	.dw	0xfff8,0x0000,0x4040,0x60c0,0x3180,0x1b00,0x0e00,0x0400
         40 40 C0 60
         80 31 00 1B
         00 0E 00 04
000083CD 00 00 F8 FF        	.dw	0x0000,0xfff8,0x0000,0x6000,0xe000,0x86c0,0x8ec0,0xf800
         00 00 00 60
         00 E0 C0 86
         C0 8E 00 F8
000083D5 00 70 00 00        	.dw	0x7000,0x0000,0xfff8,0x0000,0x0f80,0x3fe0,0x7070,0x4390
         F8 FF 00 00
         80 0F E0 3F
         70 70 90 43
000083DD D8 CF 48 9C        	.dw	0xcfd8,0x9c48,0x9188,0xdfc8,0x4e58,0x7050,0x3fd0,0x0f80
         88 91 C8 DF
         58 4E 50 70
         D0 3F 80 0F
000083E5 00 00 F8 FF        	.dw	0x0000,0xfff8,0x0000,0x00c0,0x07c0,0x3f00,0xf100,0xf100
         00 00 C0 00
         C0 07 00 3F
         00 F1 00 F1
000083ED 00 3F C0 07        	.dw	0x3f00,0x07c0,0x00c0,0x0000,0xfff8,0x0000,0xffc0,0xffc0
         C0 00 00 00
         F8 FF 00 00
         C0 FF C0 FF
000083F5 40 88 40 88        	.dw	0x8840,0x8840,0x8840,0x8840,0xffc0,0x7780,0x0000,0xfff8
         40 88 40 88
         C0 FF 80 77
         00 00 F8 FF
000083FD 00 00 00 3F        	.dw	0x0000,0x3f00,0x7f80,0xc0c0,0x8040,0x8040,0xc0c0,0x6180
         80 7F C0 C0
         40 80 40 80
         C0 C0 80 61
00008405 00 00 F8 FF        	.dw	0x0000,0xfff8,0x0000,0xffc0,0xffc0,0x8040,0x8040,0x8040
         00 00 C0 FF
         C0 FF 40 80
         40 80 40 80
0000840D C0 C0 80 7F        	.dw	0xc0c0,0x7f80,0x3f00,0x0000,0xfff8,0x0000,0xffc0,0xffc0
         00 3F 00 00
         F8 FF 00 00
         C0 FF C0 FF
00008415 40 88 40 88        	.dw	0x8840,0x8840,0x8840,0x8840,0x8040,0x0000,0xfff8,0x0000
         40 88 40 88
         40 80 00 00
         F8 FF 00 00
0000841D C0 FF C0 FF        	.dw	0xffc0,0xffc0,0x8800,0x8800,0x8800,0x8800,0x8000,0x0000
         00 88 00 88
         00 88 00 88
         00 80 00 00
00008425 F8 FF 00 00        	.dw	0xfff8,0x0000,0x3f00,0x7f80,0xc0c0,0x8040,0x8440,0x8440
         00 3F 80 7F
         C0 C0 40 80
         40 84 40 84
0000842D 80 C7 C0 67        	.dw	0xc780,0x67c0,0x0000,0xfff8,0x0000,0xffc0,0xffc0,0x0800
         00 00 F8 FF
         00 00 C0 FF
         C0 FF 00 08
00008435 00 08 00 08        	.dw	0x0800,0x0800,0x0800,0xffc0,0xffc0,0x0000,0xfff8,0x0000
         00 08 C0 FF
         C0 FF 00 00
         F8 FF 00 00
0000843D C0 FF C0 FF        	.dw	0xffc0,0xffc0,0x0000,0xfff8,0x0000,0x0180,0x01c0,0x0040
         00 00 F8 FF
         00 00 80 01
         C0 01 40 00
00008445 40 00 C0 FF        	.dw	0x0040,0xffc0,0xff80,0x0000,0xfff8,0x0000,0xffc0,0xffc0
         80 FF 00 00
         F8 FF 00 00
         C0 FF C0 FF
0000844D 00 1C 00 36        	.dw	0x1c00,0x3600,0x6300,0xc180,0x80c0,0x0040,0xfff8,0x0000
         00 63 80 C1
         C0 80 40 00
         F8 FF 00 00
00008455 C0 FF C0 FF        	.dw	0xffc0,0xffc0,0x0040,0x0040,0x0040,0x0040,0x0040,0xfff8
         40 00 40 00
         40 00 40 00
         40 00 F8 FF
0000845D 00 00 C0 FF        	.dw	0x0000,0xffc0,0xffc0,0x3c00,0x0f00,0x03c0,0x03c0,0x0f00
         C0 FF 00 3C
         00 0F C0 03
         C0 03 00 0F
00008465 00 3C C0 FF        	.dw	0x3c00,0xffc0,0xffc0,0x0000,0xfff8,0x0000,0xffc0,0xffc0
         C0 FF 00 00
         F8 FF 00 00
         C0 FF C0 FF
0000846D 00 70 00 3C        	.dw	0x7000,0x3c00,0x0f00,0x0380,0xffc0,0xffc0,0x0000,0xfff8
         00 0F 80 03
         C0 FF C0 FF
         00 00 F8 FF
00008475 00 00 00 3F        	.dw	0x0000,0x3f00,0x7f80,0xc0c0,0x8040,0x8040,0xc0c0,0x7f80
         80 7F C0 C0
         40 80 40 80
         C0 C0 80 7F
0000847D 00 3F 00 00        	.dw	0x3f00,0x0000,0xfff8,0x0000,0xffc0,0xffc0,0x8400,0x8400
         F8 FF 00 00
         C0 FF C0 FF
         00 84 00 84
00008485 00 84 00 84        	.dw	0x8400,0x8400,0xfc00,0x7800,0x0000,0xfff8,0x0000,0x3f00
         00 FC 00 78
         00 00 F8 FF
         00 00 00 3F
0000848D 80 7F C0 C0        	.dw	0x7f80,0xc0c0,0x8040,0x8140,0xc1c0,0x7fc0,0x3f40,0x0000
         40 80 40 81
         C0 C1 C0 7F
         40 3F 00 00
00008495 F8 FF 00 00        	.dw	0xfff8,0x0000,0xffc0,0xffc0,0x8400,0x8400,0x8400,0x8400
         C0 FF C0 FF
         00 84 00 84
         00 84 00 84
0000849D 80 FF C0 7B        	.dw	0xff80,0x7bc0,0x0040,0xfff8,0x0000,0x7180,0xf9c0,0x8840
         40 00 F8 FF
         00 00 80 71
         C0 F9 40 88
000084A5 40 8C 40 84        	.dw	0x8c40,0x8440,0xe7c0,0x6380,0x0000,0xfff8,0x0000,0x8000
         C0 E7 80 63
         00 00 F8 FF
         00 00 00 80
000084AD 00 80 00 80        	.dw	0x8000,0x8000,0xffc0,0xffc0,0x8000,0x8000,0x8000,0x0000
         C0 FF C0 FF
         00 80 00 80
         00 80 00 00
000084B5 F8 FF 00 00        	.dw	0xfff8,0x0000,0xff00,0xff80,0x00c0,0x0040,0x0040,0x00c0
         00 FF 80 FF
         C0 00 40 00
         40 00 C0 00
000084BD 80 FF 00 FF        	.dw	0xff80,0xff00,0x0000,0xfff8,0x0000,0xc000,0xf800,0x3f00
         00 00 F8 FF
         00 00 00 C0
         00 F8 00 3F
000084C5 C0 03 C0 03        	.dw	0x03c0,0x03c0,0x3f00,0xf800,0xc000,0x0000,0xfff8,0x0000
         00 3F 00 F8
         00 C0 00 00
         F8 FF 00 00
000084CD 00 E0 00 F8        	.dw	0xe000,0xf800,0x1e00,0x07c0,0x03c0,0x1e00,0xf800,0xf800
         00 1E C0 07
         C0 03 00 1E
         00 F8 00 F8
000084D5 00 1E C0 03        	.dw	0x1e00,0x03c0,0x07c0,0x1e00,0xf800,0xe000,0x0000,0xfff8
         C0 07 00 1E
         00 F8 00 E0
         00 00 F8 FF
000084DD 00 00 C0 C0        	.dw	0x0000,0xc0c0,0xe1c0,0x3300,0x1e00,0x0c00,0x1e00,0x3300
         C0 E1 00 33
         00 1E 00 0C
         00 1E 00 33
000084E5 C0 E1 C0 C0        	.dw	0xe1c0,0xc0c0,0x0000,0xfff8,0x0000,0xc000,0xe000,0x3000
         00 00 F8 FF
         00 00 00 C0
         00 E0 00 30
000084ED 00 18 C0 0F        	.dw	0x1800,0x0fc0,0x0fc0,0x1800,0x3000,0xe000,0xc000,0x0000
         C0 0F 00 18
         00 30 00 E0
         00 C0 00 00
000084F5 F8 FF 00 00        	.dw	0xfff8,0x0000,0x80c0,0x81c0,0x8340,0x8640,0x8c40,0x9840
         C0 80 C0 81
         40 83 40 86
         40 8C 40 98
000084FD 40 B0 40 E0        	.dw	0xb040,0xe040,0xc040,0x0000,0xfff8,0x0000,0xfdf8,0xfdf8
         40 C0 00 00
         F8 FF 00 00
         F8 FD F8 FD
00008505 08 80 00 00        	.dw	0x8008,0x0000,0xfff8,0x0000,0xf000,0xff00,0x0ff0,0x00f0
         F8 FF 00 00
         00 F0 00 FF
         F0 0F F0 00
0000850D 00 00 F8 FF        	.dw	0x0000,0xfff8,0x0000,0x8008,0xfdf8,0xfdf8,0x0000,0xfff8
         00 00 08 80
         F8 FD F8 FD
         00 00 F8 FF
00008515 00 00 00 20        	.dw	0x0000,0x2000,0x6000,0xc000,0x6000,0x2000,0x0000,0xfff8
         00 60 00 C0
         00 60 00 20
         00 00 F8 FF
0000851D 00 00 08 00        	.dw	0x0000,0x0008,0x0008,0x0008,0x0008,0x0008,0x0008,0x0008
         08 00 08 00
         08 00 08 00
         08 00 08 00
00008525 08 00 F8 FF        	.dw	0x0008,0xfff8,0x0000,0x8000,0xc000,0x4000,0x0000,0xfff8
         00 00 00 80
         00 C0 00 40
         00 00 F8 FF
0000852D 00 00 80 09        	.dw	0x0000,0x0980,0x1bc0,0x1640,0x1440,0x1fc0,0x0fc0,0x0000
         C0 1B 40 16
         40 14 C0 1F
         C0 0F 00 00
00008535 F8 FF 00 00        	.dw	0xfff8,0x0000,0xffc0,0xffc0,0x1040,0x1040,0x1fc0,0x0f80
         C0 FF C0 FF
         40 10 40 10
         C0 1F 80 0F
0000853D 00 00 F8 FF        	.dw	0x0000,0xfff8,0x0000,0x0f80,0x1fc0,0x1040,0x1040,0x18c0
         00 00 80 0F
         C0 1F 40 10
         40 10 C0 18
00008545 80 08 00 00        	.dw	0x0880,0x0000,0xfff8,0x0000,0x0f80,0x1fc0,0x1040,0x1040
         F8 FF 00 00
         80 0F C0 1F
         40 10 40 10
0000854D C0 FF C0 FF        	.dw	0xffc0,0xffc0,0x0000,0xfff8,0x0000,0x0f80,0x1fc0,0x1440
         00 00 F8 FF
         00 00 80 0F
         C0 1F 40 14
00008555 40 14 C0 1C        	.dw	0x1440,0x1cc0,0x0c80,0x0000,0xfff8,0x0000,0x1000,0x7fc0
         80 0C 00 00
         F8 FF 00 00
         00 10 C0 7F
0000855D C0 FF 00 90        	.dw	0xffc0,0x9000,0x0000,0xfff8,0x0000,0x0f90,0x1fd8,0x1048
         00 00 F8 FF
         00 00 90 0F
         D8 1F 48 10
00008565 48 10 F8 1F        	.dw	0x1048,0x1ff8,0x1ff0,0x0000,0xfff8,0x0000,0xffc0,0xffc0
         F0 1F 00 00
         F8 FF 00 00
         C0 FF C0 FF
0000856D 00 10 00 10        	.dw	0x1000,0x1000,0x1fc0,0x0fc0,0x0000,0xfff8,0x0000,0xdfc0
         C0 1F C0 0F
         00 00 F8 FF
         00 00 C0 DF
00008575 C0 DF 00 00        	.dw	0xdfc0,0x0000,0xfff8,0x0000,0x0008,0xdff8,0xdff0,0x0000
         F8 FF 00 00
         08 00 F8 DF
         F0 DF 00 00
0000857D F8 FF 00 00        	.dw	0xfff8,0x0000,0xffc0,0xffc0,0x0700,0x0d80,0x18c0,0x1040
         C0 FF C0 FF
         00 07 80 0D
         C0 18 40 10
00008585 00 00 F8 FF        	.dw	0x0000,0xfff8,0x0000,0xffc0,0xffc0,0x0000,0xfff8,0x0000
         00 00 C0 FF
         C0 FF 00 00
         F8 FF 00 00
0000858D C0 1F C0 1F        	.dw	0x1fc0,0x1fc0,0x1000,0x1000,0x1fc0,0x1fc0,0x1000,0x1000
         00 10 00 10
         C0 1F C0 1F
         00 10 00 10
00008595 C0 1F C0 0F        	.dw	0x1fc0,0x0fc0,0x0000,0xfff8,0x0000,0x1fc0,0x1fc0,0x1000
         00 00 F8 FF
         00 00 C0 1F
         C0 1F 00 10
0000859D 00 10 C0 1F        	.dw	0x1000,0x1fc0,0x0fc0,0x0000,0xfff8,0x0000,0x0f80,0x1fc0
         C0 0F 00 00
         F8 FF 00 00
         80 0F C0 1F
000085A5 40 10 40 10        	.dw	0x1040,0x1040,0x1fc0,0x0f80,0x0000,0xfff8,0x0000,0x1ff8
         C0 1F 80 0F
         00 00 F8 FF
         00 00 F8 1F
000085AD F8 1F 40 10        	.dw	0x1ff8,0x1040,0x1040,0x1fc0,0x0f80,0x0000,0xfff8,0x0000
         40 10 C0 1F
         80 0F 00 00
         F8 FF 00 00
000085B5 80 0F C0 1F        	.dw	0x0f80,0x1fc0,0x1040,0x1040,0x1ff8,0x1ff8,0x0000,0xfff8
         40 10 40 10
         F8 1F F8 1F
         00 00 F8 FF
000085BD 00 00 C0 1F        	.dw	0x0000,0x1fc0,0x1fc0,0x1800,0x1000,0x0000,0xfff8,0x0000
         C0 1F 00 18
         00 10 00 00
         F8 FF 00 00
000085C5 80 0C C0 1E        	.dw	0x0c80,0x1ec0,0x1240,0x1240,0x1bc0,0x0980,0x0000,0xfff8
         40 12 40 12
         C0 1B 80 09
         00 00 F8 FF
000085CD 00 00 00 10        	.dw	0x0000,0x1000,0x7f80,0x7fc0,0x1040,0x0000,0xfff8,0x0000
         80 7F C0 7F
         40 10 00 00
         F8 FF 00 00
000085D5 80 1F C0 1F        	.dw	0x1f80,0x1fc0,0x0040,0x0040,0x1fc0,0x1fc0,0x0000,0xfff8
         40 00 40 00
         C0 1F C0 1F
         00 00 F8 FF
000085DD 00 00 00 18        	.dw	0x0000,0x1800,0x1e00,0x0700,0x01c0,0x01c0,0x0700,0x1e00
         00 1E 00 07
         C0 01 C0 01
         00 07 00 1E
000085E5 00 18 00 00        	.dw	0x1800,0x0000,0xfff8,0x0000,0x1800,0x1f00,0x07c0,0x01c0
         F8 FF 00 00
         00 18 00 1F
         C0 07 C0 01
000085ED 00 0F 00 0F        	.dw	0x0f00,0x0f00,0x01c0,0x07c0,0x1f00,0x1800,0x0000,0xfff8
         C0 01 C0 07
         00 1F 00 18
         00 00 F8 FF
000085F5 00 00 40 10        	.dw	0x0000,0x1040,0x18c0,0x0d80,0x0700,0x0700,0x0d80,0x18c0
         C0 18 80 0D
         00 07 00 07
         80 0D C0 18
000085FD 40 10 00 00        	.dw	0x1040,0x0000,0xfff8,0x0000,0x1800,0x1e08,0x0798,0x01f0
         F8 FF 00 00
         00 18 08 1E
         98 07 F0 01
00008605 E0 01 80 07        	.dw	0x01e0,0x0780,0x1e00,0x1800,0x0000,0xfff8,0x0000,0x10c0
         00 1E 00 18
         00 00 F8 FF
         00 00 C0 10
0000860D C0 11 40 13        	.dw	0x11c0,0x1340,0x1640,0x1c40,0x1840,0x0000,0xfff8,0x0000
         40 16 40 1C
         40 18 00 00
         F8 FF 00 00
00008615 00 02 F0 7F        	.dw	0x0200,0x7ff0,0xfdf8,0x8008,0x0000,0xfff8,0x0000,0xfdf8
         F8 FD 08 80
         00 00 F8 FF
         00 00 F8 FD
0000861D F8 FD 00 00        	.dw	0xfdf8,0x0000,0xfff8,0x0000,0x8008,0xfdf8,0x7ff0,0x0200
         F8 FF 00 00
         08 80 F8 FD
         F0 7F 00 02
00008625 00 00 F8 FF        	.dw	0x0000,0xfff8,0x0000,0xc000,0x8000,0xc000,0x4000,0xc000
         00 00 00 C0
         00 80 00 C0
         00 40 00 C0
0000862D 00 00 F8 FF        	.dw	0x0000,0xfff8,0x0000,0x0f80,0x3060,0x4510,0x4090,0x4090
         00 00 80 0F
         60 30 10 45
         90 40 90 40
00008635 10 45 60 30        	.dw	0x4510,0x3060,0x0f80,0x0000,0xfff8,0x0000,0x0000,0x1ff0
         80 0F 00 00
         F8 FF 00 00
         00 00 F0 1F
0000863D 80 1F 40 00        	.dw	0x1f80,0x0040,0x0040,0x1fc0,0x1f80,0x0040,0x0040,0x0000
         40 00 C0 1F
         80 1F 40 00
         40 00 00 00
00008645 F8 FF 00 00        	.dw	0xfff8,0x0000,0x0040,0x3ae0,0x7ea0,0x47e0,0x73c0,0x3260
         40 00 E0 3A
         A0 7E E0 47
         C0 73 60 32
0000864D 20 00 60 00        	.dw	0x0020,0x0060,0x0000,0xfff8,0x0000,0x2000,0x3140,0x1d40
         00 00 F8 FF
         00 00 00 20
         40 31 40 1D
00008655 E0 07 E0 07        	.dw	0x07e0,0x07e0,0x1d40,0x3140,0x2000,0x0000,0xfff8,0x0000
         40 1D 40 31
         00 20 00 00
         F8 FF 00 00
0000865D 80 1F C0 3F        	.dw	0x1f80,0x3fc0,0x30c0,0xfff0,0x30c0,0x1980,0x0000,0xfff8
         C0 30 F0 FF
         C0 30 80 19
         00 00 F8 FF
00008665 00 00 C0 19        	.dw	0x0000,0x19c0,0x3be0,0x2220,0x1fe0,0x1fc0,0x2220,0x3ee0
         E0 3B 20 22
         E0 1F C0 1F
         20 22 E0 3E
0000866D C0 1C 00 00        	.dw	0x1cc0,0x0000,0xfff8,0x0000,0x3e00,0x7f00,0xc180,0x80e8
         F8 FF 00 00
         00 3E 00 7F
         80 C1 E8 80
00008675 F0 80 80 C1        	.dw	0x80f0,0xc180,0x6300,0x0000,0xfff8,0x0000,0x3800,0x6000
         00 63 00 00
         F8 FF 00 00
         00 38 00 60
0000867D 00 C0 00 C0        	.dw	0xc000,0xc000,0xc000,0x6000,0x3800,0x0000,0xfff8,0x0000
         00 C0 00 60
         00 38 00 00
         F8 FF 00 00
00008685 00 00 C0 DF        	.dw	0x0000,0xdfc0,0xdfc0,0x0000,0xfff8,0x0000,0x00e0,0x01f0
         C0 DF 00 00
         F8 FF 00 00
         E0 00 F0 01
0000868D 10 37 10 36        	.dw	0x3710,0x3610,0x0070,0x0060,0x0000,0xfff8,0x0000,0x4000
         70 00 60 00
         00 00 F8 FF
         00 00 00 40
00008695 00 A0 00 40        	.dw	0xa000,0x4000,0x0000,0x0000,0xfff8,0x0000,0x0000,0x0000
         00 00 00 00
         F8 FF 00 00
         00 00 00 00
0000869D 00 00 00 00        	.dw	0x0000,0x0000,0x0000,0x0000,0x0000,0x0000,0x0000,0xfff8
         00 00 00 00
         00 00 00 00
         00 00 F8 FF
000086A5 00 00 00 00        	.dw	0x0000,0x0000,0x0000,0x0000,0x0000,0x0000,0x0000,0x0000
         00 00 00 00
         00 00 00 00
         00 00 00 00
000086AD 00 00 F8 FF        	.dw	0x0000,0xfff8,0x0000,0x0000,0x0000,0x0000,0x0000,0x0000
         00 00 00 00
         00 00 00 00
         00 00 00 00
000086B5 00 00 F8 FF        	.dw	0x0000,0xfff8,0x0000,0x0000,0x0000,0x0000,0x0000,0x0000
         00 00 00 00
         00 00 00 00
         00 00 00 00
000086BD 00 00 F8 FF        	.dw	0x0000,0xfff8,0x0000,0x0000,0x0000,0x0000,0x0000,0x0000
         00 00 00 00
         00 00 00 00
         00 00 00 00
000086C5 00 00 F8 FF        	.dw	0x0000,0xfff8,0x0000,0x0000,0x0000,0x0000,0x0000,0x0000
         00 00 00 00
         00 00 00 00
         00 00 00 00
000086CD 00 00 F8 FF        	.dw	0x0000,0xfff8,0x0000,0x0980,0x9bc0,0xd640,0x3440,0x1fc0
         00 00 80 09
         C0 9B 40 D6
         40 34 C0 1F
000086D5 C0 0F 00 00        	.dw	0x0fc0,0x0000,0xfff8,0x0000,0x0980,0x1bc0,0x1640,0x3440
         F8 FF 00 00
         80 09 C0 1B
         40 16 40 34
000086DD C0 DF C0 8F        	.dw	0xdfc0,0x8fc0,0x0000,0xfff8,0x0000,0x0980,0x5bc0,0x9640
         00 00 F8 FF
         00 00 80 09
         C0 5B 40 96
000086E5 40 94 C0 5F        	.dw	0x9440,0x5fc0,0x0fc0,0x0000,0xfff8,0x0000,0x0980,0xdbc0
         C0 0F 00 00
         F8 FF 00 00
         80 09 C0 DB
000086ED 40 D6 40 14        	.dw	0xd640,0x1440,0xdfc0,0xcfc0,0x0000,0xfff8,0x0000,0x0980
         C0 DF C0 CF
         00 00 F8 FF
         00 00 80 09
000086F5 C0 5B 40 B6        	.dw	0x5bc0,0xb640,0xb440,0x5fc0,0x0fc0,0x0000,0xfff8,0x0000
         40 B4 C0 5F
         C0 0F 00 00
         F8 FF 00 00
000086FD C0 00 C0 01        	.dw	0x00c0,0x01c0,0x8f00,0xdd00,0x3d00,0x0f00,0x01c0,0x00c0
         00 8F 00 DD
         00 3D 00 0F
         C0 01 C0 00
00008705 00 00 F8 FF        	.dw	0x0000,0xfff8,0x0000,0x00c0,0x01c0,0x0f00,0x3d00,0xdd00
         00 00 C0 00
         C0 01 00 0F
         00 3D 00 DD
0000870D 00 8F C0 01        	.dw	0x8f00,0x01c0,0x00c0,0x0000,0xfff8,0x0000,0x00c0,0x01c0
         C0 00 00 00
         F8 FF 00 00
         C0 00 C0 01
00008715 00 4F 00 9D        	.dw	0x4f00,0x9d00,0x9d00,0x4f00,0x01c0,0x00c0,0x0000,0xfff8
         00 9D 00 4F
         C0 01 C0 00
         00 00 F8 FF
0000871D 00 00 C0 00        	.dw	0x0000,0x00c0,0xc1c0,0xcf00,0x1d00,0x1d00,0xcf00,0xc1c0
         C0 C1 00 CF
         00 1D 00 1D
         00 CF C0 C1
00008725 C0 00 00 00        	.dw	0x00c0,0x0000,0xfff8,0x0000,0x00c0,0x01c0,0x4f00,0xbd00
         F8 FF 00 00
         C0 00 C0 01
         00 4F 00 BD
0000872D 00 BD 00 4F        	.dw	0xbd00,0x4f00,0x01c0,0x00c0,0x0000,0xfff8,0x0000,0x0f80
         C0 01 C0 00
         00 00 F8 FF
         00 00 80 0F
00008735 C0 9F 40 D4        	.dw	0x9fc0,0xd440,0x3440,0x1cc0,0x0c80,0x0000,0xfff8,0x0000
         40 34 C0 1C
         80 0C 00 00
         F8 FF 00 00
0000873D 80 0F C0 1F        	.dw	0x0f80,0x1fc0,0x3440,0xd440,0x9cc0,0x0c80,0x0000,0xfff8
         40 34 40 D4
         C0 9C 80 0C
         00 00 F8 FF
00008745 00 00 80 0F        	.dw	0x0000,0x0f80,0x5fc0,0x9440,0x9440,0x5cc0,0x0c80,0x0000
         C0 5F 40 94
         40 94 C0 5C
         80 0C 00 00
0000874D F8 FF 00 00        	.dw	0xfff8,0x0000,0x0f80,0xdfc0,0xd440,0x1440,0xdcc0,0xcc80
         80 0F C0 DF
         40 D4 40 14
         C0 DC 80 CC
00008755 00 00 F8 FF        	.dw	0x0000,0xfff8,0x0000,0x1fc0,0x9fc0,0xd240,0x3240,0x1240
         00 00 C0 1F
         C0 9F 40 D2
         40 32 40 12
0000875D 40 12 40 10        	.dw	0x1240,0x1040,0x0000,0xfff8,0x0000,0x1fc0,0x1fc0,0x3240
         00 00 F8 FF
         00 00 C0 1F
         C0 1F 40 32
00008765 40 D2 40 92        	.dw	0xd240,0x9240,0x1240,0x1040,0x0000,0xfff8,0x0000,0x1fc0
         40 12 40 10
         00 00 F8 FF
         00 00 C0 1F
0000876D C0 5F 40 92        	.dw	0x5fc0,0x9240,0x9240,0x9240,0x5240,0x1040,0x0000,0xfff8
         40 92 40 92
         40 52 40 10
         00 00 F8 FF
00008775 00 00 C0 1F        	.dw	0x0000,0x1fc0,0xdfc0,0xd240,0x1240,0xd240,0xd240,0x1040
         C0 DF 40 D2
         40 12 40 D2
         40 D2 40 10
0000877D 00 00 F8 FF        	.dw	0x0000,0xfff8,0x0000,0x8000,0xdfc0,0x1fc0,0x0000,0xfff8
         00 00 00 80
         C0 DF C0 1F
         00 00 F8 FF
00008785 00 00 C0 1F        	.dw	0x0000,0x1fc0,0xdfc0,0x8000,0x0000,0xfff8,0x0000,0x4000
         C0 DF 00 80
         00 00 F8 FF
         00 00 00 40
0000878D C0 9F C0 9F        	.dw	0x9fc0,0x9fc0,0x4000,0x0000,0xfff8,0x0000,0xc000,0x1fc0
         00 40 00 00
         F8 FF 00 00
         00 C0 C0 1F
00008795 C0 1F 00 C0        	.dw	0x1fc0,0xc000,0x0000,0xfff8,0x0000,0x9040,0xdfc0,0x1fc0
         00 00 F8 FF
         00 00 40 90
         C0 DF C0 1F
0000879D 40 10 F8 FF        	.dw	0x1040,0xfff8,0x0000,0x1040,0x1fc0,0xdfc0,0x9040,0x0000
         00 00 40 10
         C0 1F C0 DF
         40 90 00 00
000087A5 F8 FF 00 00        	.dw	0xfff8,0x0000,0x5040,0x9fc0,0x9fc0,0x5040,0x0000,0xfff8
         40 50 C0 9F
         C0 9F 40 50
         00 00 F8 FF
000087AD 00 00 40 D0        	.dw	0x0000,0xd040,0x1fc0,0x1fc0,0xd040,0x0000,0xfff8,0x0000
         C0 1F C0 1F
         40 D0 00 00
         F8 FF 00 00
000087B5 80 0F C0 9F        	.dw	0x0f80,0x9fc0,0xd040,0x3040,0x1fc0,0x0f80,0x0000,0xfff8
         40 D0 40 30
         C0 1F 80 0F
         00 00 F8 FF
000087BD 00 00 80 0F        	.dw	0x0000,0x0f80,0x1fc0,0x3040,0xd040,0x9fc0,0x0f80,0x0000
         C0 1F 40 30
         40 D0 C0 9F
         80 0F 00 00
000087C5 F8 FF 00 00        	.dw	0xfff8,0x0000,0x0f80,0x5fc0,0x9040,0x9040,0x5fc0,0x0f80
         80 0F C0 5F
         40 90 40 90
         C0 5F 80 0F
000087CD 00 00 F8 FF        	.dw	0x0000,0xfff8,0x0000,0xcf80,0xdfc0,0x1040,0x1040,0xdfc0
         00 00 80 CF
         C0 DF 40 10
         40 10 C0 DF
000087D5 80 CF 00 00        	.dw	0xcf80,0x0000,0xfff8,0x0000,0x0700,0x0f80,0x98c0,0xd040
         F8 FF 00 00
         00 07 80 0F
         C0 98 40 D0
000087DD 40 30 C0 18        	.dw	0x3040,0x18c0,0x0f80,0x0700,0x0000,0xfff8,0x0000,0x0700
         80 0F 00 07
         00 00 F8 FF
         00 00 00 07
000087E5 80 0F C0 18        	.dw	0x0f80,0x18c0,0x3040,0xd040,0x98c0,0x0f80,0x0700,0x0000
         40 30 40 D0
         C0 98 80 0F
         00 07 00 00
000087ED F8 FF 00 00        	.dw	0xfff8,0x0000,0x0700,0x0f80,0x58c0,0x9040,0x9040,0x58c0
         00 07 80 0F
         C0 58 40 90
         40 90 C0 58
000087F5 80 0F 00 07        	.dw	0x0f80,0x0700,0x0000,0xfff8,0x0000,0x0700,0xcf80,0xd8c0
         00 00 F8 FF
         00 00 00 07
         80 CF C0 D8
000087FD 40 10 40 10        	.dw	0x1040,0x1040,0xd8c0,0xcf80,0x0700,0x0000,0xfff8,0x0000
         C0 D8 80 CF
         00 07 00 00
         F8 FF 00 00
00008805 80 1F C0 9F        	.dw	0x1f80,0x9fc0,0xc040,0x2040,0x1fc0,0x1fc0,0x0000,0xfff8
         40 C0 40 20
         C0 1F C0 1F
         00 00 F8 FF
0000880D 00 00 80 1F        	.dw	0x0000,0x1f80,0x1fc0,0x2040,0xc040,0x9fc0,0x1fc0,0x0000
         C0 1F 40 20
         40 C0 C0 9F
         C0 1F 00 00
00008815 F8 FF 00 00        	.dw	0xfff8,0x0000,0x1f80,0x5fc0,0x8040,0x8040,0x5fc0,0x1fc0
         80 1F C0 5F
         40 80 40 80
         C0 5F C0 1F
0000881D 00 00 F8 FF        	.dw	0x0000,0xfff8,0x0000,0xdf80,0xdfc0,0x0040,0x0040,0xdfc0
         00 00 80 DF
         C0 DF 40 00
         40 00 C0 DF
00008825 80 DF 00 00        	.dw	0xdf80,0x0000,0xfff8,0x0000,0x1f00,0x1f80,0x80c0,0xc040
         F8 FF 00 00
         00 1F 80 1F
         C0 80 40 C0
0000882D 40 20 C0 00        	.dw	0x2040,0x00c0,0x1f80,0x1f00,0x0000,0xfff8,0x0000,0x1f00
         80 1F 00 1F
         00 00 F8 FF
         00 00 00 1F
00008835 80 1F C0 00        	.dw	0x1f80,0x00c0,0x2040,0xc040,0x80c0,0x1f80,0x1f00,0x0000
         40 20 40 C0
         C0 80 80 1F
         00 1F 00 00
0000883D F8 FF 00 00        	.dw	0xfff8,0x0000,0x1f00,0x1f80,0x40c0,0x8040,0x8040,0x40c0
         00 1F 80 1F
         C0 40 40 80
         40 80 C0 40
00008845 80 1F 00 1F        	.dw	0x1f80,0x1f00,0x0000,0xfff8,0x0000,0xdf00,0xdf80,0x00c0
         00 00 F8 FF
         00 00 00 DF
         80 DF C0 00
0000884D 40 00 40 00        	.dw	0x0040,0x0040,0x00c0,0xdf80,0xdf00,0x0000,0xfff8,0x0000
         C0 00 80 DF
         00 DF 00 00
         F8 FF 00 00
00008855 00 18 08 1E        	.dw	0x1800,0x1e08,0x0798,0x21f0,0xc1e0,0x8780,0x1e00,0x1800
         98 07 F0 21
         E0 C1 80 87
         00 1E 00 18
0000885D 00 00 F8 FF        	.dw	0x0000,0xfff8,0x0000,0x2000,0x3000,0x1800,0x0c00,0x2fc0
         00 00 00 20
         00 30 00 18
         00 0C C0 2F
00008865 C0 CF 00 8C        	.dw	0xcfc0,0x8c00,0x1800,0x3000,0x2000,0x0000,0xfff8,0x0000
         00 18 00 30
         00 20 00 00
         F8 FF 00 00
0000886D 80 3F C0 7F        	.dw	0x3f80,0x7fc0,0x8160,0x9930,0xff00,0x6600,0x0000,0xfff8
         60 81 30 99
         00 FF 00 66
         00 00 F8 FF
00008875 00 00 C0 5F        	.dw	0x0000,0x5fc0,0x9fc0,0x9000,0x5000,0x5fc0,0x8fc0,0x0000
         C0 9F 00 90
         00 50 C0 5F
         C0 8F 00 00
0000887D F8 FF 00 00        	.dw	0xfff8,0x0000,0x4f80,0x9fc0,0x9040,0x5040,0x5fc0,0x8f80
         80 4F C0 9F
         40 90 40 50
         C0 5F 80 8F
00008885 00 00 F8 FF        	.dw	0x0000,0xfff8,0x0000,0x4980,0x9bc0,0x9640,0x5440,0x5fc0
         00 00 80 49
         C0 9B 40 96
         40 54 C0 5F
0000888D C0 8F 00 00        	.dw	0x8fc0,0x0000,0xfff8
         F8 FF      
                            	
                            	//;Sunnorth code.,0x;Written by: Bai-yawei.,0x;
                            	//smallb1.BM_,0x;width=16(2byte)		height=1360,0x,0x
                            	
                            	.public	smallb1
                            	smallb1:
                            	//.dw	0x0000,0xffc0,0x0000,
00008890 C0 FF 00 00        	.dw	0xffc0,0x0000,0x0000,0x0000,0x0000,0x0000
         00 00 00 00
         00 00 00 00
00008896 C0 FF 00 00        	.dw	0xffc0,0x0000,0x0000,0xe300,0xfb00,0x0000,0x0000,0xffc0,0x0000
         00 00 00 E3
         00 FB 00 00
         00 00 C0 FF
         00 00      
0000889F 00 E0 00 E0        	.dw	0xe000,0xe000,0x0000,0xe000,0xe000,0x0000,0xffc0,0x0000,0x1400
         00 00 00 E0
         00 E0 00 00
         C0 FF 00 00
         00 14      
000088A8 00 1F 00 F4        	.dw	0x1f00,0xf400,0x1f00,0xf400,0x1400,0xffc0,0x0000,0x3100,0x5880
         00 1F 00 F4
         00 14 C0 FF
         00 00 00 31
         80 58      
000088B1 C0 FD 80 4C        	.dw	0xfdc0,0x4c80,0x2700,0x0000,0xffc0,0x0000,0x7000,0x8900,0x7200
         00 27 00 00
         C0 FF 00 00
         00 70 00 89
         00 72      
000088BA 00 0C 00 30        	.dw	0x0c00,0x3000,0x4e00,0x9100,0x0e00,0xffc0,0x0000,0x0600,0x0f00
         00 4E 00 91
         00 0E C0 FF
         00 00 00 06
         00 0F      
000088C3 00 73 00 F9        	.dw	0x7300,0xf900,0x9e00,0xe700,0x1900,0x1200,0x0000,0xffc0,0x0000
         00 9E 00 E7
         00 19 00 12
         00 00 C0 FF
         00 00      
000088CC 00 E0 00 E0        	.dw	0xe000,0xe000,0x0000,0xffc0,0x0000,0x1e00,0x7f80,0x4080,0x8040
         00 00 C0 FF
         00 00 00 1E
         80 7F 80 40
         40 80      
000088D5 00 00 C0 FF        	.dw	0x0000,0xffc0,0x0000,0x8040,0x4080,0x7f80,0x1e00,0x0000,0xffc0
         00 00 40 80
         80 40 80 7F
         00 1E 00 00
         C0 FF      
000088DE 00 00 00 20        	.dw	0x0000,0x2000,0x2800,0xf000,0x2800,0x2000,0x0000,0xffc0,0x0000
         00 28 00 F0
         00 28 00 20
         00 00 C0 FF
         00 00      
000088E7 00 08 00 08        	.dw	0x0800,0x0800,0x3e00,0x0800,0x0800,0x0000,0xffc0,0x0000,0x0340
         00 3E 00 08
         00 08 00 00
         C0 FF 00 00
         40 03      
000088F0 80 03 00 00        	.dw	0x0380,0x0000,0xffc0,0x0000,0x0400,0x0400,0x0400,0x0000,0xffc0
         C0 FF 00 00
         00 04 00 04
         00 04 00 00
         C0 FF      
000088F9 00 00 00 00        	.dw	0x0000,0x0000,0x0300,0x0300,0x0000,0xffc0,0x0000,0x0300,0x3c00
         00 03 00 03
         00 00 C0 FF
         00 00 00 03
         00 3C      
00008902 00 C0 C0 FF        	.dw	0xc000,0xffc0,0x0000,0x7e00,0xff00,0x8100,0xff00,0x7e00,0x0000
         00 00 00 7E
         00 FF 00 81
         00 FF 00 7E
         00 00      
0000890B C0 FF 00 00        	.dw	0xffc0,0x0000,0x0000,0x8100,0xff00,0xff00,0x0100,0x0000,0xffc0
         00 00 00 81
         00 FF 00 FF
         00 01 00 00
         C0 FF      
00008914 00 00 00 61        	.dw	0x0000,0x6100,0xc700,0xc700,0xfb00,0x6300,0x0000,0xffc0,0x0000
         00 C7 00 C7
         00 FB 00 63
         00 00 C0 FF
         00 00      
0000891D 00 42 00 81        	.dw	0x4200,0x8100,0x9100,0xff00,0x6e00,0x0000,0xffc0,0x0000,0x0c00
         00 91 00 FF
         00 6E 00 00
         C0 FF 00 00
         00 0C      
00008926 00 14 00 24        	.dw	0x1400,0x2400,0x7f00,0xff00,0x0400,0xffc0,0x0000,0x1b00,0xfb00
         00 7F 00 FF
         00 04 C0 FF
         00 00 00 1B
         00 FB      
0000892F 00 D9 00 DA        	.dw	0xd900,0xda00,0x8c00,0x0000,0xffc0,0x0000,0x1e00,0x7f00,0x5100
         00 8C 00 00
         C0 FF 00 00
         00 1E 00 7F
         00 51      
00008938 00 9F 00 8E        	.dw	0x9f00,0x8e00,0x0000,0xffc0,0x0000,0xc000,0xc000,0xc700,0xf800
         00 00 C0 FF
         00 00 00 C0
         00 C0 00 C7
         00 F8      
00008941 00 C0 00 00        	.dw	0xc000,0x0000,0xffc0,0x0000,0x6600,0xff00,0x9900,0xff00,0x6600
         C0 FF 00 00
         00 66 00 FF
         00 99 00 FF
         00 66      
0000894A 00 00 C0 FF        	.dw	0x0000,0xffc0,0x0000,0x7100,0xf900,0x8a00,0xfe00,0x7800,0x0000
         00 00 00 71
         00 F9 00 8A
         00 FE 00 78
         00 00      
00008953 C0 FF 00 00        	.dw	0xffc0,0x0000,0x0000,0x1b00,0x1b00,0x0000,0xffc0,0x0000,0x0000
         00 00 00 1B
         00 1B 00 00
         C0 FF 00 00
         00 00      
0000895C 40 1B 80 1B        	.dw	0x1b40,0x1b80,0xffc0,0x0000,0x0800,0x1400,0x1400,0x1400,0x2200
         C0 FF 00 00
         00 08 00 14
         00 14 00 14
         00 22      
00008965 00 00 C0 FF        	.dw	0x0000,0xffc0,0x0000,0x1400,0x1400,0x1400,0x1400,0x1400,0x0000
         00 00 00 14
         00 14 00 14
         00 14 00 14
         00 00      
0000896E C0 FF 00 00        	.dw	0xffc0,0x0000,0x2200,0x1400,0x1400,0x1400,0x0800,0x0000,0xffc0
         00 22 00 14
         00 14 00 14
         00 08 00 00
         C0 FF      
00008977 00 00 00 60        	.dw	0x0000,0x6000,0xe300,0x8b00,0xf000,0x6000,0x0000,0xffc0,0x0000
         00 E3 00 8B
         00 F0 00 60
         00 00 C0 FF
         00 00      
00008980 00 1E 00 21        	.dw	0x1e00,0x2100,0x4680,0x8f40,0x9140,0x9240,0x8f40,0x5a80,0x3f00
         80 46 40 8F
         40 91 40 92
         40 8F 80 5A
         00 3F      
00008989 00 00 C0 FF        	.dw	0x0000,0xffc0,0x0000,0x0100,0x0700,0x1900,0xe800,0xf900,0x3f00
         00 00 00 01
         00 07 00 19
         00 E8 00 F9
         00 3F      
00008992 00 07 00 01        	.dw	0x0700,0x0100,0x0000,0xffc0,0x0000,0x8100,0xff00,0xff00,0x9100
         00 00 C0 FF
         00 00 00 81
         00 FF 00 FF
         00 91      
0000899B 00 91 00 FF        	.dw	0x9100,0xff00,0x6e00,0x0000,0xffc0,0x0000,0x3c00,0x7e00,0xc300
         00 6E 00 00
         C0 FF 00 00
         00 3C 00 7E
         00 C3      
000089A4 00 81 00 81        	.dw	0x8100,0x8100,0x4100,0xe200,0x0000,0xffc0,0x0000,0x8100,0xff00
         00 41 00 E2
         00 00 C0 FF
         00 00 00 81
         00 FF      
000089AD 00 FF 00 81        	.dw	0xff00,0x8100,0x8100,0xc300,0x7e00,0x3c00,0x0000,0xffc0,0x0000
         00 81 00 C3
         00 7E 00 3C
         00 00 C0 FF
         00 00      
000089B6 00 81 00 FF        	.dw	0x8100,0xff00,0xff00,0x9100,0xb900,0xc300,0x0000,0xffc0,0x0000
         00 FF 00 91
         00 B9 00 C3
         00 00 C0 FF
         00 00      
000089BF 00 81 00 FF        	.dw	0x8100,0xff00,0xff00,0x9100,0xb800,0xc000,0xffc0,0x0000,0x3c00
         00 FF 00 91
         00 B8 00 C0
         C0 FF 00 00
         00 3C      
000089C8 00 7E 00 C3        	.dw	0x7e00,0xc300,0x8100,0x8500,0x4700,0xe600,0x0400,0xffc0,0x0000
         00 81 00 85
         00 47 00 E6
         00 04 C0 FF
         00 00      
000089D1 00 81 00 FF        	.dw	0x8100,0xff00,0xff00,0x9100,0x1000,0x9100,0xff00,0xff00,0x8100
         00 FF 00 91
         00 10 00 91
         00 FF 00 FF
         00 81      
000089DA 00 00 C0 FF        	.dw	0x0000,0xffc0,0x0000,0x8100,0xff00,0xff00,0x8100,0x0000,0xffc0
         00 00 00 81
         00 FF 00 FF
         00 81 00 00
         C0 FF      
000089E3 00 00 00 06        	.dw	0x0000,0x0600,0x0700,0x8100,0xff00,0xfe00,0x8000,0xffc0,0x0000
         00 07 00 81
         00 FF 00 FE
         00 80 C0 FF
         00 00      
000089EC 00 81 00 FF        	.dw	0x8100,0xff00,0xff00,0x9900,0x3c00,0xc700,0x8300,0x8100,0xffc0
         00 FF 00 99
         00 3C 00 C7
         00 83 00 81
         C0 FF      
000089F5 00 00 00 81        	.dw	0x0000,0x8100,0xff00,0xff00,0x8100,0x0100,0x0300,0x0700,0x0000
         00 FF 00 FF
         00 81 00 01
         00 03 00 07
         00 00      
000089FE C0 FF 00 00        	.dw	0xffc0,0x0000,0x8100,0xff00,0xe100,0xfc00,0x1f00,0x1c00,0xe100
         00 81 00 FF
         00 E1 00 FC
         00 1F 00 1C
         00 E1      
00008A07 00 FF 00 FF        	.dw	0xff00,0xff00,0x8100,0x0000,0xffc0,0x0000,0x8100,0xff00,0xc100
         00 81 00 00
         C0 FF 00 00
         00 81 00 FF
         00 C1      
00008A10 00 70 00 38        	.dw	0x7000,0x3800,0x8e00,0xff00,0x8000,0x0000,0xffc0,0x0000,0x3c00
         00 8E 00 FF
         00 80 00 00
         C0 FF 00 00
         00 3C      
00008A19 00 7E 00 C3        	.dw	0x7e00,0xc300,0x8100,0x8100,0xc300,0x7e00,0x3c00,0x0000,0xffc0
         00 81 00 81
         00 C3 00 7E
         00 3C 00 00
         C0 FF      
00008A22 00 00 00 81        	.dw	0x0000,0x8100,0xff00,0xff00,0x8900,0x8800,0xf800,0x7000,0x0000
         00 FF 00 FF
         00 89 00 88
         00 F8 00 70
         00 00      
00008A2B C0 FF 00 00        	.dw	0xffc0,0x0000,0x3c00,0x7e00,0xc300,0x8180,0x81c0,0xc340,0x7e40
         00 3C 00 7E
         00 C3 80 81
         C0 81 40 C3
         40 7E      
00008A34 40 3C 00 00        	.dw	0x3c40,0x0000,0xffc0,0x0000,0x8100,0xff00,0xff00,0x9100,0x9c00
         C0 FF 00 00
         00 81 00 FF
         00 FF 00 91
         00 9C      
00008A3D 00 EF 00 63        	.dw	0xef00,0x6300,0x0100,0xffc0,0x0000,0x7300,0xfa00,0x9900,0x5f00
         00 01 C0 FF
         00 00 00 73
         00 FA 00 99
         00 5F      
00008A46 00 CE 00 00        	.dw	0xce00,0x0000,0xffc0,0x0000,0xc000,0x8100,0xff00,0xff00,0x8100
         C0 FF 00 00
         00 C0 00 81
         00 FF 00 FF
         00 81      
00008A4F 00 C0 00 00        	.dw	0xc000,0x0000,0xffc0,0x0000,0x8000,0xfe00,0xff00,0x8100,0x0100
         C0 FF 00 00
         00 80 00 FE
         00 FF 00 81
         00 01      
00008A58 00 81 00 FE        	.dw	0x8100,0xfe00,0x8000,0x0000,0xffc0,0x0000,0x8000,0xe000,0xfc00
         00 80 00 00
         C0 FF 00 00
         00 80 00 E0
         00 FC      
00008A61 00 9F 00 03        	.dw	0x9f00,0x0300,0x9c00,0xe000,0x8000,0xffc0,0x0000,0x8000,0xe000
         00 9C 00 E0
         00 80 C0 FF
         00 00 00 80
         00 E0      
00008A6A 00 F8 00 1F        	.dw	0xf800,0x1f00,0x8700,0xd800,0xf800,0x9f00,0x0700,0xb800,0xc000
         00 87 00 D8
         00 F8 00 9F
         00 07 00 B8
         00 C0      
00008A73 00 80 C0 FF        	.dw	0x8000,0xffc0,0x0000,0x8100,0xc300,0xf500,0xbc00,0x2f00,0xc300
         00 00 00 81
         00 C3 00 F5
         00 BC 00 2F
         00 C3      
00008A7C 00 81 00 00        	.dw	0x8100,0x0000,0xffc0,0x0000,0x8000,0xc000,0xf100,0xbf00,0x0f00
         C0 FF 00 00
         00 80 00 C0
         00 F1 00 BF
         00 0F      
00008A85 00 B1 00 C0        	.dw	0xb100,0xc000,0x8000,0x0000,0xffc0,0x0000,0x0100,0xe300,0x8f00
         00 80 00 00
         C0 FF 00 00
         00 01 00 E3
         00 8F      
00008A8E 00 BD 00 F1        	.dw	0xbd00,0xf100,0xc300,0x8700,0x0000,0xffc0,0x0000,0x0000,0xfbc0
         00 C3 00 87
         00 00 C0 FF
         00 00 00 00
         C0 FB      
00008A97 C0 FB 40 80        	.dw	0xfbc0,0x8040,0xffc0,0x0000,0xc000,0x3c00,0x0300,0xffc0,0x0000
         C0 FF 00 00
         00 C0 00 3C
         00 03 C0 FF
         00 00      
00008AA0 40 80 C0 FB        	.dw	0x8040,0xfbc0,0xfbc0,0x0000,0xffc0,0x0000,0x0800,0x3000,0x4000
         C0 FB 00 00
         C0 FF 00 00
         00 08 00 30
         00 40      
00008AA9 00 30 00 08        	.dw	0x3000,0x0800,0x0000,0xffc0,0x0000,0x0040,0x0040,0x0040,0x0040
         00 00 C0 FF
         00 00 40 00
         40 00 40 00
         40 00      
00008AB2 40 00 40 00        	.dw	0x0040,0x0040,0xffc0,0x0000,0x0000,0x8000,0x4000,0x0000,0xffc0
         C0 FF 00 00
         00 00 00 80
         00 40 00 00
         C0 FF      
00008ABB 00 00 00 0A        	.dw	0x0000,0x0a00,0x1700,0x1500,0x1f00,0x0f00,0x0100,0xffc0,0x0000
         00 17 00 15
         00 1F 00 0F
         00 01 C0 FF
         00 00      
00008AC4 00 80 00 FF        	.dw	0x8000,0xff00,0xfe00,0x1100,0x1f00,0x0e00,0x0000,0xffc0,0x0000
         00 FE 00 11
         00 1F 00 0E
         00 00 C0 FF
         00 00      
00008ACD 00 0E 00 1F        	.dw	0x0e00,0x1f00,0x1100,0x1900,0x0000,0xffc0,0x0000,0x0e00,0x1f00
         00 11 00 19
         00 00 C0 FF
         00 00 00 0E
         00 1F      
00008AD6 00 91 00 FF        	.dw	0x9100,0xff00,0xff00,0x0100,0xffc0,0x0000,0x0e00,0x1f00,0x1500
         00 FF 00 01
         C0 FF 00 00
         00 0E 00 1F
         00 15      
00008ADF 00 1D 00 0D        	.dw	0x1d00,0x0d00,0x0000,0xffc0,0x0000,0x1100,0x7f00,0xff00,0x9100
         00 00 C0 FF
         00 00 00 11
         00 7F 00 FF
         00 91      
00008AE8 00 C0 C0 FF        	.dw	0xc000,0xffc0,0x0000,0x0a80,0x1fc0,0x1540,0x1d40,0x19c0,0x1180
         00 00 80 0A
         C0 1F 40 15
         40 1D C0 19
         80 11      
00008AF1 C0 FF 00 00        	.dw	0xffc0,0x0000,0x8100,0xff00,0xff00,0x1000,0x1f00,0x0f00,0x0100
         00 81 00 FF
         00 FF 00 10
         00 1F 00 0F
         00 01      
00008AFA C0 FF 00 00        	.dw	0xffc0,0x0000,0x1100,0xdf00,0xdf00,0x0100,0xffc0,0x0000,0x00c0
         00 11 00 DF
         00 DF 00 01
         C0 FF 00 00
         C0 00      
00008B03 40 10 C0 DF        	.dw	0x1040,0xdfc0,0xdf80,0x0000,0xffc0,0x0000,0x8100,0xff00,0xff00
         80 DF 00 00
         C0 FF 00 00
         00 81 00 FF
         00 FF      
00008B0C 00 08 00 1F        	.dw	0x0800,0x1f00,0x1700,0x1100,0xffc0,0x0000,0x8100,0xff00,0xff00
         00 17 00 11
         C0 FF 00 00
         00 81 00 FF
         00 FF      
00008B15 00 01 C0 FF        	.dw	0x0100,0xffc0,0x0000,0x1100,0x1f00,0x1f00,0x1000,0x1f00,0x0f00
         00 00 00 11
         00 1F 00 1F
         00 10 00 1F
         00 0F      
00008B1E 00 10 00 1F        	.dw	0x1000,0x1f00,0x0f00,0x0100,0xffc0,0x0000,0x1100,0x1f00,0x1f00
         00 0F 00 01
         C0 FF 00 00
         00 11 00 1F
         00 1F      
00008B27 00 10 00 1F        	.dw	0x1000,0x1f00,0x0f00,0x0100,0xffc0,0x0000,0x0e00,0x1f00,0x1100
         00 0F 00 01
         C0 FF 00 00
         00 0E 00 1F
         00 11      
00008B30 00 1F 00 0E        	.dw	0x1f00,0x0e00,0x0000,0xffc0,0x0000,0x1040,0x1fc0,0x1fc0,0x1140
         00 00 C0 FF
         00 00 40 10
         C0 1F C0 1F
         40 11      
00008B39 00 1F 00 0E        	.dw	0x1f00,0x0e00,0x0000,0xffc0,0x0000,0x0e00,0x1f00,0x1140,0x0fc0
         00 00 C0 FF
         00 00 00 0E
         00 1F 40 11
         C0 0F      
00008B42 C0 1F 40 00        	.dw	0x1fc0,0x0040,0xffc0,0x0000,0x1100,0x1f00,0x1f00,0x1100,0x1800
         C0 FF 00 00
         00 11 00 1F
         00 1F 00 11
         00 18      
00008B4B C0 FF 00 00        	.dw	0xffc0,0x0000,0x0b00,0x1d00,0x1700,0x1a00,0x0000,0xffc0,0x0000
         00 0B 00 1D
         00 17 00 1A
         00 00 C0 FF
         00 00      
00008B54 00 10 00 1F        	.dw	0x1000,0x1f00,0x7f00,0x1100,0x0000,0xffc0,0x0000,0x1000,0x1e00
         00 7F 00 11
         00 00 C0 FF
         00 00 00 10
         00 1E      
00008B5D 00 1F 00 01        	.dw	0x1f00,0x0100,0x1f00,0x1f00,0x0100,0xffc0,0x0000,0x1000,0x1c00
         00 1F 00 1F
         00 01 C0 FF
         00 00 00 10
         00 1C      
00008B66 00 1F 00 03        	.dw	0x1f00,0x0300,0x1c00,0x1000,0xffc0,0x0000,0x1000,0x1c00,0x1f00
         00 1C 00 10
         C0 FF 00 00
         00 10 00 1C
         00 1F      
00008B6F 00 03 00 1C        	.dw	0x0300,0x1c00,0x1f00,0x0300,0x1c00,0x1000,0xffc0,0x0000,0x1100
         00 1F 00 03
         00 1C 00 10
         C0 FF 00 00
         00 11      
00008B78 00 19 00 1E        	.dw	0x1900,0x1e00,0x0f00,0x1300,0x1100,0x0000,0xffc0,0x0000,0x10c0
         00 0F 00 13
         00 11 00 00
         C0 FF 00 00
         C0 10      
00008B81 40 1C 80 1F        	.dw	0x1c40,0x1f80,0x0600,0x1800,0x1000,0xffc0,0x0000,0x1100,0x1700
         00 06 00 18
         00 10 C0 FF
         00 00 00 11
         00 17      
00008B8A 00 1F 00 1D        	.dw	0x1f00,0x1d00,0x1100,0xffc0,0x0000,0x0800,0x7780,0xe3c0,0x8040
         00 11 C0 FF
         00 00 00 08
         80 77 C0 E3
         40 80      
00008B93 00 00 C0 FF        	.dw	0x0000,0xffc0,0x0000,0xfbc0,0xfbc0,0x0000,0xffc0,0x0000,0x8040
         00 00 C0 FB
         C0 FB 00 00
         C0 FF 00 00
         40 80      
00008B9C C0 E3 80 77        	.dw	0xe3c0,0x7780,0x0800,0x0000,0xffc0,0x0000,0x1c00,0x1800,0x0c00
         00 08 00 00
         C0 FF 00 00
         00 1C 00 18
         00 0C      
00008BA5 00 06 00 0E        	.dw	0x0600,0x0e00,0x0000,0xffc0,0x0000,0x3e00,0x4100,0x9480,0x8280
         00 00 C0 FF
         00 00 00 3E
         00 41 80 94
         80 82      
00008BAE 80 94 00 41        	.dw	0x9480,0x4100,0x3e00,0x0000,0xffc0,0x0000,0x3f80,0x3e00,0x0300
         00 3E 00 00
         C0 FF 00 00
         80 3F 00 3E
         00 03      
00008BB7 00 3F 00 3F        	.dw	0x3f00,0x3f00,0x0100,0x0000,0xffc0,0x0000,0x0880,0x7f00,0xff80
         00 01 00 00
         C0 FF 00 00
         80 08 00 7F
         80 FF      
00008BC0 80 88 80 69        	.dw	0x8880,0x6980,0x0100,0x0000,0xffc0,0x0000,0x4a00,0x6a00,0x3f80
         00 01 00 00
         C0 FF 00 00
         00 4A 00 6A
         80 3F      
00008BC9 80 3F 00 6A        	.dw	0x3f80,0x6a00,0x4a00,0x0000,0xffc0,0x0000,0x3e00,0x7f00,0x4100
         00 4A 00 00
         C0 FF 00 00
         00 3E 00 7F
         00 41      
00008BD2 80 FF 00 41        	.dw	0xff80,0x4100,0x2200,0x0000,0xffc0,0x0000,0x2600,0x4900,0x7f00
         00 22 00 00
         C0 FF 00 00
         00 26 00 49
         00 7F      
00008BDB 00 3E 00 49        	.dw	0x3e00,0x4900,0x3a00,0x0000,0xffc0,0x0000,0x3e00,0x7f40,0x41c0
         00 3A 00 00
         C0 FF 00 00
         00 3E 40 7F
         C0 41      
00008BE4 80 41 00 22        	.dw	0x4180,0x2200,0x0000,0xffc0,0x0000,0x3800,0x7800,0xc000,0x8000
         00 00 C0 FF
         00 00 00 38
         00 78 00 C0
         00 80      
00008BED 00 80 00 C0        	.dw	0x8000,0xc000,0x7800,0x3800,0x0000,0xffc0,0x0000,0xc700,0xdf00
         00 78 00 38
         00 00 C0 FF
         00 00 00 C7
         00 DF      
00008BF6 00 00 C0 FF        	.dw	0x0000,0xffc0,0x0000,0x0300,0x0780,0x6880,0x6380,0x0300,0x0000
         00 00 00 03
         80 07 80 68
         80 63 00 03
         00 00      
00008BFF C0 FF 00 00        	.dw	0xffc0,0x0000,0x4000,0xa000,0x4000,0x0000,0x0000,0xffc0,0x0000
         00 40 00 A0
         00 40 00 00
         00 00 C0 FF
         00 00      
00008C08 00 00 00 00        	.dw	0x0000,0x0000,0x0000,0x0000,0x0000,0xffc0,0x0000,0x0000,0x0000
         00 00 00 00
         00 00 C0 FF
         00 00 00 00
         00 00      
00008C11 00 00 00 00        	.dw	0x0000,0x0000,0x0000,0x0000,0xffc0,0x0000,0x0000,0x0000,0x0000
         00 00 00 00
         C0 FF 00 00
         00 00 00 00
         00 00      
00008C1A 00 00 00 00        	.dw	0x0000,0x0000,0xffc0,0x0000,0x0000,0x0000,0x0000,0x0000,0x0000
         C0 FF 00 00
         00 00 00 00
         00 00 00 00
         00 00      
00008C23 00 00 00 00        	.dw	0x0000,0x0000,0xffc0,0x0000,0x0000,0x0000,0x0000,0x0000,0x0000
         C0 FF 00 00
         00 00 00 00
         00 00 00 00
         00 00      
00008C2C 00 00 C0 FF        	.dw	0x0000,0xffc0,0x0000,0x0000,0x0000,0x0000,0x0000,0x0000,0x0000
         00 00 00 00
         00 00 00 00
         00 00 00 00
         00 00      
00008C35 C0 FF 00 00        	.dw	0xffc0,0x0000,0x0a00,0x9700,0xd500,0x1f00,0x0f00,0x0100,0xffc0
         00 0A 00 97
         00 D5 00 1F
         00 0F 00 01
         C0 FF      
00008C3E 00 00 00 0A        	.dw	0x0000,0x0a00,0x1700,0xd500,0x9f00,0x0f00,0x0100,0xffc0,0x0000
         00 17 00 D5
         00 9F 00 0F
         00 01 C0 FF
         00 00      
00008C47 00 0A 00 57        	.dw	0x0a00,0x5700,0x9500,0x5f00,0x0f00,0x0100,0xffc0,0x0000,0xca00
         00 95 00 5F
         00 0F 00 01
         C0 FF 00 00
         00 CA      
00008C50 00 D7 00 15        	.dw	0xd700,0x1500,0xdf00,0xcf00,0x0100,0xffc0,0x0000,0x0a00,0x5700
         00 DF 00 CF
         00 01 C0 FF
         00 00 00 0A
         00 57      
00008C59 00 B5 00 BF        	.dw	0xb500,0xbf00,0x4f00,0x0100,0xffc0,0x0000,0x0100,0x0300,0x8d00
         00 4F 00 01
         C0 FF 00 00
         00 01 00 03
         00 8D      
00008C62 00 B4 00 BD        	.dw	0xb400,0xbd00,0x5f00,0x0300,0x0100,0x0000,0xffc0,0x0000,0x0100
         00 5F 00 03
         00 01 00 00
         C0 FF 00 00
         00 01      
00008C6B 00 03 00 4D        	.dw	0x0300,0x4d00,0xb400,0xbd00,0x9f00,0x0300,0x0100,0x0000,0xffc0
         00 B4 00 BD
         00 9F 00 03
         00 01 00 00
         C0 FF      
00008C74 00 00 00 01        	.dw	0x0000,0x0100,0x4300,0x8d00,0xb400,0xbd00,0x9f00,0x4300,0x0100
         00 43 00 8D
         00 B4 00 BD
         00 9F 00 43
         00 01      
00008C7D 00 00 C0 FF        	.dw	0x0000,0xffc0,0x0000,0xc100,0xc300,0x0d00,0x3400,0x3d00,0x1f00
         00 00 00 C1
         00 C3 00 0D
         00 34 00 3D
         00 1F      
00008C86 00 C3 00 C1        	.dw	0xc300,0xc100,0x0000,0xffc0,0x0000,0x0100,0x0300,0x4d00,0xb400
         00 00 C0 FF
         00 00 00 01
         00 03 00 4D
         00 B4      
00008C8F 00 BD 00 5F        	.dw	0xbd00,0x5f00,0x4300,0x0100,0x0000,0xffc0,0x0000,0x0e00,0x9f00
         00 43 00 01
         00 00 C0 FF
         00 00 00 0E
         00 9F      
00008C98 00 D5 00 1D        	.dw	0xd500,0x1d00,0x0d00,0x0000,0xffc0,0x0000,0x0e00,0x1f00,0xd500
         00 0D 00 00
         C0 FF 00 00
         00 0E 00 1F
         00 D5      
00008CA1 00 9D 00 0D        	.dw	0x9d00,0x0d00,0x0000,0xffc0,0x0000,0x0e00,0x5f00,0x9500,0x5d00
         00 00 C0 FF
         00 00 00 0E
         00 5F 00 95
         00 5D      
00008CAA 00 0D 00 00        	.dw	0x0d00,0x0000,0xffc0,0x0000,0xce00,0xdf00,0x1500,0x1d00,0xcd00
         C0 FF 00 00
         00 CE 00 DF
         00 15 00 1D
         00 CD      
00008CB3 00 C0 C0 FF        	.dw	0xc000,0xffc0,0x0000,0x2100,0xbf00,0xbf00,0x6900,0x2900,0x3300
         00 00 00 21
         00 BF 00 BF
         00 69 00 29
         00 33      
00008CBC 00 00 C0 FF        	.dw	0x0000,0xffc0,0x0000,0x2100,0x3f00,0x7f00,0xa900,0xa900,0x3300
         00 00 00 21
         00 3F 00 7F
         00 A9 00 A9
         00 33      
00008CC5 00 00 C0 FF        	.dw	0x0000,0xffc0,0x0000,0x2100,0x7f00,0xbf00,0xa900,0x6900,0x3300
         00 00 00 21
         00 7F 00 BF
         00 A9 00 69
         00 33      
00008CCE 00 00 C0 FF        	.dw	0x0000,0xffc0,0x0000,0x2100,0xbf00,0x3f00,0x2900,0xa900,0x3300
         00 00 00 21
         00 BF 00 3F
         00 29 00 A9
         00 33      
00008CD7 00 00 C0 FF        	.dw	0x0000,0xffc0,0x0000,0x9100,0xdf00,0x1f00,0x0100,0xffc0,0x0000
         00 00 00 91
         00 DF 00 1F
         00 01 C0 FF
         00 00      
00008CE0 00 11 00 DF        	.dw	0x1100,0xdf00,0x9f00,0x0100,0xffc0,0x0000,0x5100,0x9f00,0x9f00
         00 9F 00 01
         C0 FF 00 00
         00 51 00 9F
         00 9F      
00008CE9 00 41 C0 FF        	.dw	0x4100,0xffc0,0x0000,0xd100,0x1f00,0xdf00,0x0100,0xffc0,0x0000
         00 00 00 D1
         00 1F 00 DF
         00 01 C0 FF
         00 00      
00008CF2 00 A1 00 BF        	.dw	0xa100,0xbf00,0x7f00,0x2100,0x0000,0xffc0,0x0000,0x2100,0x7f00
         00 7F 00 21
         00 00 C0 FF
         00 00 00 21
         00 7F      
00008CFB 00 BF 00 A1        	.dw	0xbf00,0xa100,0x0000,0xffc0,0x0000,0x6100,0xbf00,0xbf00,0x6100
         00 00 C0 FF
         00 00 00 61
         00 BF 00 BF
         00 61      
00008D04 00 00 C0 FF        	.dw	0x0000,0xffc0,0x0000,0xa100,0x3f00,0x3f00,0xa100,0x0000,0xffc0
         00 00 00 A1
         00 3F 00 3F
         00 A1 00 00
         C0 FF      
00008D0D 00 00 00 0E        	.dw	0x0000,0x0e00,0x9f00,0xd100,0x1f00,0x0e00,0x0000,0xffc0,0x0000
         00 9F 00 D1
         00 1F 00 0E
         00 00 C0 FF
         00 00      
00008D16 00 0E 00 1F        	.dw	0x0e00,0x1f00,0xd100,0x9f00,0x0e00,0x0000,0xffc0,0x0000,0x4e00
         00 D1 00 9F
         00 0E 00 00
         C0 FF 00 00
         00 4E      
00008D1F 00 9F 00 91        	.dw	0x9f00,0x9100,0x9f00,0x4e00,0x0000,0xffc0,0x0000,0xce00,0xdf00
         00 9F 00 4E
         00 00 C0 FF
         00 00 00 CE
         00 DF      
00008D28 00 11 00 DF        	.dw	0x1100,0xdf00,0xce00,0x0000,0xffc0,0x0000,0x0c00,0x1e00,0xb300
         00 CE 00 00
         C0 FF 00 00
         00 0C 00 1E
         00 B3      
00008D31 00 A1 00 61        	.dw	0xa100,0x6100,0x3300,0x1e00,0x0c00,0x0000,0xffc0,0x0000,0x0c00
         00 33 00 1E
         00 0C 00 00
         C0 FF 00 00
         00 0C      
00008D3A 00 1E 00 33        	.dw	0x1e00,0x3300,0x6100,0xa100,0xb300,0x1e00,0x0c00,0x0000,0xffc0
         00 61 00 A1
         00 B3 00 1E
         00 0C 00 00
         C0 FF      
00008D43 00 00 00 0C        	.dw	0x0000,0x0c00,0x1e00,0x7300,0xa100,0xe100,0x7300,0x1e00,0x0c00
         00 1E 00 73
         00 A1 00 E1
         00 73 00 1E
         00 0C      
00008D4C 00 00 C0 FF        	.dw	0x0000,0xffc0,0x0000,0xcc00,0xde00,0x3300,0x2100,0x2100,0x3300
         00 00 00 CC
         00 DE 00 33
         00 21 00 21
         00 33      
00008D55 00 DE 00 CC        	.dw	0xde00,0xcc00,0x0000,0xffc0,0x0000,0x1000,0x1e00,0x9f00,0xc100
         00 00 C0 FF
         00 00 00 10
         00 1E 00 9F
         00 C1      
00008D5E 00 1F 00 1F        	.dw	0x1f00,0x1f00,0x0100,0xffc0,0x0000,0x1000,0x1e00,0x1f00,0xc100
         00 01 C0 FF
         00 00 00 10
         00 1E 00 1F
         00 C1      
00008D67 00 9F 00 1F        	.dw	0x9f00,0x1f00,0x0100,0xffc0,0x0000,0x1000,0x1e00,0x5f00,0x8100
         00 01 C0 FF
         00 00 00 10
         00 1E 00 5F
         00 81      
00008D70 00 5F 00 1F        	.dw	0x5f00,0x1f00,0x0100,0xffc0,0x0000,0x1000,0xde00,0xdf00,0x0100
         00 01 C0 FF
         00 00 00 10
         00 DE 00 DF
         00 01      
00008D79 00 DF 00 DF        	.dw	0xdf00,0xdf00,0x0100,0xffc0,0x0000,0x2000,0xbe00,0xbf00,0xe100
         00 01 C0 FF
         00 00 00 20
         00 BE 00 BF
         00 E1      
00008D82 00 41 00 21        	.dw	0x4100,0x2100,0x3f00,0x2000,0x0000,0x0000,0xffc0,0x0000,0x2000
         00 3F 00 20
         00 00 00 00
         C0 FF 00 00
         00 20      
00008D8B 00 3E 00 3F        	.dw	0x3e00,0x3f00,0x6100,0xc100,0xa100,0xbf00,0x2000,0x0000,0xffc0
         00 61 00 C1
         00 A1 00 BF
         00 20 00 00
         C0 FF      
00008D94 00 00 00 20        	.dw	0x0000,0x2000,0x3e00,0x7f00,0xe100,0x8100,0xa100,0x7f00,0x2000
         00 3E 00 7F
         00 E1 00 81
         00 A1 00 7F
         00 20      
00008D9D 00 00 C0 FF        	.dw	0x0000,0xffc0,0x0000,0x2000,0xbe00,0xbf00,0x2100,0x0100,0x2100
         00 00 00 20
         00 BE 00 BF
         00 21 00 01
         00 21      
00008DA6 00 BF 00 A0        	.dw	0xbf00,0xa000,0x0000,0xffc0,0x0000,0x10c0,0x1c40,0x5f80,0xc600
         00 00 C0 FF
         00 00 C0 10
         40 1C 80 5F
         00 C6      
00008DAF 00 98 00 90        	.dw	0x9800,0x9000,0xffc0,0x0000,0x2000,0x3000,0x3900,0x6f00,0xc700
         C0 FF 00 00
         00 20 00 30
         00 39 00 6F
         00 C7      
00008DB8 00 A9 00 B0        	.dw	0xa900,0xb000,0x2000,0x0000,0xffc0,0x0000,0x7f00,0x8280,0x9200
         00 20 00 00
         C0 FF 00 00
         00 7F 80 82
         00 92      
00008DC1 00 6C 00 00        	.dw	0x6c00,0x0000,0xffc0,0x0000,0x1100,0x5f00,0x9f00,0x9000,0x5f00
         C0 FF 00 00
         00 11 00 5F
         00 9F 00 90
         00 5F      
00008DCA 00 4F 00 01        	.dw	0x4f00,0x0100,0xffc0,0x0000,0x4e00,0x9f00,0x9100,0x5f00,0x4e00
         C0 FF 00 00
         00 4E 00 9F
         00 91 00 5F
         00 4E      
00008DD3 00 00 C0 FF        	.dw	0x0000,0xffc0,0x0000,0x4a00,0x9700,0x9500,0x5f00,0x4f00,0x0100
         00 00 00 4A
         00 97 00 95
         00 5F 00 4F
         00 01      
00008DDC C0 FF              	.dw	0xffc0
                            	
                            	//;Sunnorth code.,0x;Written by: Bai-yawei.,0x;small1.BM_,0x;width=16(2byte)
                            	//		height=1264
                            	.public small1
                            	small1:
                            	//.dw	0xffc0,0x0000,
00008DDD C0 FF 00 00        	.dw	0xffc0,0x0000,0x0000,0x0000,0x0000,0xffc0,0x0000
         00 00 00 00
         00 00 C0 FF
         00 00      
00008DE4 00 00 00 FD        	.dw	0x0000,0xfd00,0x0000,0x0000,0xffc0,0x0000,0x0000,0xe000,0x0000
         00 00 00 00
         C0 FF 00 00
         00 00 00 E0
         00 00      
00008DED 00 E0 00 00        	.dw	0xe000,0x0000,0xffc0,0x0000,0x1700,0x3c00,0xd400,0x1700,0x3c00
         C0 FF 00 00
         00 17 00 3C
         00 D4 00 17
         00 3C      
00008DF6 00 D4 C0 FF        	.dw	0xd400,0xffc0,0x0000,0x3100,0x4880,0xfbc0,0x4480,0x2300,0x0000
         00 00 00 31
         80 48 C0 FB
         80 44 00 23
         00 00      
00008DFF C0 FF 00 00        	.dw	0xffc0,0x0000,0x6000,0x9100,0x6200,0x0400,0x1800,0x2000,0x4600
         00 60 00 91
         00 62 00 04
         00 18 00 20
         00 46      
00008E08 00 89 00 06        	.dw	0x8900,0x0600,0xffc0,0x0000,0x0e00,0x0900,0x7100,0x9d00,0xa200
         C0 FF 00 00
         00 0E 00 09
         00 71 00 9D
         00 A2      
00008E11 00 C5 00 19        	.dw	0xc500,0x1900,0x1200,0x0000,0xffc0,0x0000,0xe000,0x0000,0xffc0
         00 12 00 00
         C0 FF 00 00
         00 E0 00 00
         C0 FF      
00008E1A 00 00 00 3F        	.dw	0x0000,0x3f00,0x4080,0x8040,0x0000,0xffc0,0x0000,0x8040,0x4080
         80 40 40 80
         00 00 C0 FF
         00 00 40 80
         80 40      
00008E23 00 3F 00 00        	.dw	0x3f00,0x0000,0xffc0,0x0000,0x5000,0x2000,0xf800,0x2000,0x5000
         C0 FF 00 00
         00 50 00 20
         00 F8 00 20
         00 50      
00008E2C 00 00 C0 FF        	.dw	0x0000,0xffc0,0x0000,0x0800,0x0800,0x3e00,0x0800,0x0800,0x0000
         00 00 00 08
         00 08 00 3E
         00 08 00 08
         00 00      
00008E35 C0 FF 00 00        	.dw	0xffc0,0x0000,0x0140,0x0180,0x0000,0xffc0,0x0000,0x0400,0x0400
         40 01 80 01
         00 00 C0 FF
         00 00 00 04
         00 04      
00008E3E 00 04 00 00        	.dw	0x0400,0x0000,0xffc0,0x0000,0x0000,0x0100,0x0000,0xffc0,0x0000
         C0 FF 00 00
         00 00 00 01
         00 00 C0 FF
         00 00      
00008E47 00 03 00 3C        	.dw	0x0300,0x3c00,0xc000,0xffc0,0x0000,0x7e00,0x8100,0x8100,0x8100
         00 C0 C0 FF
         00 00 00 7E
         00 81 00 81
         00 81      
00008E50 00 7E 00 00        	.dw	0x7e00,0x0000,0xffc0,0x0000,0x0000,0x8100,0xff00,0x0100,0x0000
         C0 FF 00 00
         00 00 00 81
         00 FF 00 01
         00 00      
00008E59 00 00 C0 FF        	.dw	0x0000,0xffc0,0x0000,0x4100,0x8300,0x8500,0x8900,0x7300,0x0000
         00 00 00 41
         00 83 00 85
         00 89 00 73
         00 00      
00008E62 C0 FF 00 00        	.dw	0xffc0,0x0000,0x4100,0x8100,0x9100,0x9100,0x6e00,0x0000,0xffc0
         00 41 00 81
         00 91 00 91
         00 6E 00 00
         C0 FF      
00008E6B 00 00 00 0C        	.dw	0x0000,0x0c00,0x3400,0x4400,0xff00,0x0400,0x0000,0xffc0,0x0000
         00 34 00 44
         00 FF 00 04
         00 00 C0 FF
         00 00      
00008E74 00 01 00 61        	.dw	0x0100,0x6100,0xa100,0x9100,0x8e00,0x0000,0xffc0,0x0000,0x1e00
         00 A1 00 91
         00 8E 00 00
         C0 FF 00 00
         00 1E      
00008E7D 00 69 00 51        	.dw	0x6900,0x5100,0x9100,0x8e00,0x0000,0xffc0,0x0000,0x4000,0x8000
         00 91 00 8E
         00 00 C0 FF
         00 00 00 40
         00 80      
00008E86 00 83 00 9C        	.dw	0x8300,0x9c00,0xe000,0x0000,0xffc0,0x0000,0x6600,0x9900,0x9100
         00 E0 00 00
         C0 FF 00 00
         00 66 00 99
         00 91      
00008E8F 00 99 00 66        	.dw	0x9900,0x6600,0x0000,0xffc0,0x0000,0x7100,0x8900,0x8a00,0x8e00
         00 00 C0 FF
         00 00 00 71
         00 89 00 8A
         00 8E      
00008E98 00 78 00 00        	.dw	0x7800,0x0000,0xffc0,0x0000,0x0000,0x1100,0x0000,0xffc0,0x0000
         C0 FF 00 00
         00 00 00 11
         00 00 C0 FF
         00 00      
00008EA1 00 00 40 11        	.dw	0x0000,0x1140,0x0180,0xffc0,0x0000,0x0800,0x1400,0x1400,0x1400
         80 01 C0 FF
         00 00 00 08
         00 14 00 14
         00 14      
00008EAA 00 22 00 00        	.dw	0x2200,0x0000,0xffc0,0x0000,0x1400,0x1400,0x1400,0x1400,0x1400
         C0 FF 00 00
         00 14 00 14
         00 14 00 14
         00 14      
00008EB3 00 00 C0 FF        	.dw	0x0000,0xffc0,0x0000,0x2200,0x1400,0x1400,0x1400,0x0800,0x0000
         00 00 00 22
         00 14 00 14
         00 14 00 08
         00 00      
00008EBC C0 FF 00 00        	.dw	0xffc0,0x0000,0x4000,0x8d00,0x9000,0x6000,0x0000,0xffc0,0x0000
         00 40 00 8D
         00 90 00 60
         00 00 C0 FF
         00 00      
00008EC5 00 1E 00 21        	.dw	0x1e00,0x2100,0x4c80,0x9240,0xa240,0xac40,0xb440,0x4480,0x3d00
         80 4C 40 92
         40 A2 40 AC
         40 B4 80 44
         00 3D      
00008ECE 00 00 C0 FF        	.dw	0x0000,0xffc0,0x0000,0x0100,0x0700,0x3d00,0xc400,0x3d00,0x0700
         00 00 00 01
         00 07 00 3D
         00 C4 00 3D
         00 07      
00008ED7 00 01 00 00        	.dw	0x0100,0x0000,0xffc0,0x0000,0x8100,0xff00,0x9100,0x9100,0x9100
         C0 FF 00 00
         00 81 00 FF
         00 91 00 91
         00 91      
00008EE0 00 6E 00 00        	.dw	0x6e00,0x0000,0xffc0,0x0000,0x3c00,0x4200,0x8100,0x8100,0x8100
         C0 FF 00 00
         00 3C 00 42
         00 81 00 81
         00 81      
00008EE9 00 C2 00 00        	.dw	0xc200,0x0000,0xffc0,0x0000,0x8100,0xff00,0x8100,0x8100,0x8100
         C0 FF 00 00
         00 81 00 FF
         00 81 00 81
         00 81      
00008EF2 00 42 00 3C        	.dw	0x4200,0x3c00,0x0000,0xffc0,0x0000,0x8100,0xff00,0x9100,0xb900
         00 00 C0 FF
         00 00 00 81
         00 FF 00 91
         00 B9      
00008EFB 00 81 00 C3        	.dw	0x8100,0xc300,0x0000,0xffc0,0x0000,0x8100,0xff00,0x9100,0xb800
         00 00 C0 FF
         00 00 00 81
         00 FF 00 91
         00 B8      
00008F04 00 80 00 C0        	.dw	0x8000,0xc000,0xffc0,0x0000,0x3c00,0x4200,0x8100,0x8100,0x8900
         C0 FF 00 00
         00 3C 00 42
         00 81 00 81
         00 89      
00008F0D 00 CE 00 08        	.dw	0xce00,0x0800,0xffc0,0x0000,0x8100,0xff00,0x9100,0x1000,0x9100
         C0 FF 00 00
         00 81 00 FF
         00 91 00 10
         00 91      
00008F16 00 FF 00 81        	.dw	0xff00,0x8100,0x0000,0xffc0,0x0000,0x8100,0xff00,0x8100,0x0000
         00 00 C0 FF
         00 00 00 81
         00 FF 00 81
         00 00      
00008F1F C0 FF 00 00        	.dw	0xffc0,0x0000,0x0100,0x8100,0xfe00,0x8000,0xffc0,0x0000,0x8100
         00 01 00 81
         00 FE 00 80
         C0 FF 00 00
         00 81      
00008F28 00 FF 00 91        	.dw	0xff00,0x9100,0x2800,0xc500,0x8300,0x8100,0x0100,0xffc0,0x0000
         00 28 00 C5
         00 83 00 81
         00 01 C0 FF
         00 00      
00008F31 00 81 00 FF        	.dw	0x8100,0xff00,0x8100,0x0100,0x0100,0x0300,0x0000,0xffc0,0x0000
         00 81 00 01
         00 01 00 03
         00 00 C0 FF
         00 00      
00008F3A 00 81 00 FF        	.dw	0x8100,0xff00,0xe100,0x1c00,0x0300,0x1c00,0xe100,0xff00,0x8100
         00 E1 00 1C
         00 03 00 1C
         00 E1 00 FF
         00 81      
00008F43 00 00 C0 FF        	.dw	0x0000,0xffc0,0x0000,0x8100,0xff00,0x2100,0x1800,0x8400,0xff00
         00 00 00 81
         00 FF 00 21
         00 18 00 84
         00 FF      
00008F4C 00 80 00 00        	.dw	0x8000,0x0000,0xffc0,0x0000,0x3c00,0x4200,0x8100,0x8100,0x8100
         C0 FF 00 00
         00 3C 00 42
         00 81 00 81
         00 81      
00008F55 00 42 00 3C        	.dw	0x4200,0x3c00,0x0000,0xffc0,0x0000,0x8100,0xff00,0x8900,0x8800
         00 00 C0 FF
         00 00 00 81
         00 FF 00 89
         00 88      
00008F5E 00 88 00 70        	.dw	0x8800,0x7000,0x0000,0xffc0,0x0000,0x3c00,0x4200,0x8100,0x8100
         00 00 C0 FF
         00 00 00 3C
         00 42 00 81
         00 81      
00008F67 80 81 40 42        	.dw	0x8180,0x4240,0x3c40,0x0000,0xffc0,0x0000,0x8100,0xff00,0x9100
         40 3C 00 00
         C0 FF 00 00
         00 81 00 FF
         00 91      
00008F70 00 98 00 96        	.dw	0x9800,0x9600,0x6100,0x0100,0xffc0,0x0000,0x6300,0x9100,0x8900
         00 61 00 01
         C0 FF 00 00
         00 63 00 91
         00 89      
00008F79 00 C6 00 00        	.dw	0xc600,0x0000,0xffc0,0x0000,0xc000,0x8000,0x8100,0xff00,0x8100
         C0 FF 00 00
         00 C0 00 80
         00 81 00 FF
         00 81      
00008F82 00 80 00 C0        	.dw	0x8000,0xc000,0x0000,0xffc0,0x0000,0x8000,0xfe00,0x8100,0x0100
         00 00 C0 FF
         00 00 00 80
         00 FE 00 81
         00 01      
00008F8B 00 81 00 FE        	.dw	0x8100,0xfe00,0x8000,0x0000,0xffc0,0x0000,0x8000,0xe000,0x9c00
         00 80 00 00
         C0 FF 00 00
         00 80 00 E0
         00 9C      
00008F94 00 03 00 9C        	.dw	0x0300,0x9c00,0xe000,0x8000,0xffc0,0x0000,0x8000,0xe000,0x9c00
         00 E0 00 80
         C0 FF 00 00
         00 80 00 E0
         00 9C      
00008F9D 00 03 00 8C        	.dw	0x0300,0x8c00,0xf000,0x8c00,0x0300,0x9c00,0xe000,0x8000,0xffc0
         00 F0 00 8C
         00 03 00 9C
         00 E0 00 80
         C0 FF      
00008FA6 00 00 00 81        	.dw	0x0000,0x8100,0xc300,0xa500,0x1800,0xa500,0xc300,0x8100,0x0000
         00 C3 00 A5
         00 18 00 A5
         00 C3 00 81
         00 00      
00008FAF C0 FF 00 00        	.dw	0xffc0,0x0000,0x8000,0xc000,0xb100,0x0f00,0xb100,0xc000,0x8000
         00 80 00 C0
         00 B1 00 0F
         00 B1 00 C0
         00 80      
00008FB8 00 00 C0 FF        	.dw	0x0000,0xffc0,0x0000,0xc300,0x8500,0x9900,0xa100,0xc100,0x8300
         00 00 00 C3
         00 85 00 99
         00 A1 00 C1
         00 83      
00008FC1 00 00 C0 FF        	.dw	0x0000,0xffc0,0x0000,0x0000,0xfbc0,0x8040,0x8040,0xffc0,0x0000
         00 00 00 00
         C0 FB 40 80
         40 80 C0 FF
         00 00      
00008FCA 00 C0 00 3C        	.dw	0xc000,0x3c00,0x0300,0xffc0,0x0000,0x8040,0x8040,0xf7c0,0x0000
         00 03 C0 FF
         00 00 40 80
         40 80 C0 F7
         00 00      
00008FD3 C0 FF 00 00        	.dw	0xffc0,0x0000,0x3000,0xc000,0xc000,0x3000,0x0000,0xffc0,0x0000
         00 30 00 C0
         00 C0 00 30
         00 00 C0 FF
         00 00      
[...]
         7D 00 03 00
         FE 00 18 00
         3D 00 03 00
         FE 00 18 00
         78 00 07 00
         FE 00 0E 00
         FB 00 87 00
0000AA96 FE 00 0F 00        	.dw  0xfe,0x0f,0xff,0x87,0xfe,0x0f,0xff,0xc7,0xfe,0x1f,0xff,0xc7,0xfe,0x6f,0xff,0xc7
         FF 00 87 00
         FE 00 0F 00
         FF 00 C7 00
         FE 00 1F 00
         FF 00 C7 00
         FE 00 6F 00
         FF 00 C7 00
0000AAA6 FE 00 EF 00        	.dw  0xfe,0xef,0xff,0xff,0xff,0xef,0xff,0xff,0xfe,0x0f,0xff,0xff,0xfe,0x0f,0xff,0xff
         FF 00 FF 00
         FF 00 EF 00
         FF 00 FF 00
         FE 00 0F 00
         FF 00 FF 00
         FE 00 0F 00
         FF 00 FF 00
0000AAB6 FE 00 4F 00        	.dw  0xfe,0x4f,0xff,0xff,0xfe,0x4f,0xff,0xff,0xff,0x0f,0xff,0xff,0xff,0xcf,0xff,0xff
         FF 00 FF 00
         FE 00 4F 00
         FF 00 FF 00
         FF 00 0F 00
         FF 00 FF 00
         FF 00 CF 00
         FF 00 FF 00
                            	//Sunnorth code.
                            	//Written by: Bai-yawei.
                            	//dance7.BM_
                            	//width=32(4byte)		height=32
                            	.public  _dance7
                            	_dance7:
0000AAC6 C6 AA 04 00        	.dw  _dance7,4,32
         20 00      
                            	
0000AAC9 FF 00 FE 00        	.dw  0xff,0xfe,0x7f,0xff,0xff,0xf8,0x7f,0xff,0xff,0xf2,0x7f,0xff,0xff,0xf2,0x7f,0xff
         7F 00 FF 00
         FF 00 F8 00
         7F 00 FF 00
         FF 00 F2 00
         7F 00 FF 00
         FF 00 F2 00
         7F 00 FF 00
0000AAD9 FF 00 F0 00        	.dw  0xff,0xf0,0x7f,0xff,0xff,0xf0,0x7f,0xff,0xff,0xff,0x7f,0xff,0xff,0xbe,0x7f,0xff
         7F 00 FF 00
         FF 00 F0 00
         7F 00 FF 00
         FF 00 FF 00
         7F 00 FF 00
         FF 00 BE 00
         7F 00 FF 00
0000AAE9 FF 00 9F 00        	.dw  0xff,0x9f,0xff,0xc7,0xff,0x87,0xff,0xc7,0xff,0x83,0xff,0xc7,0xff,0x83,0xff,0x87
         FF 00 C7 00
         FF 00 87 00
         FF 00 C7 00
         FF 00 83 00
         FF 00 C7 00
         FF 00 83 00
         FF 00 87 00
0000AAF9 FF 00 83 00        	.dw  0xff,0x83,0xff,0x87,0xff,0x87,0xfe,0x07,0xff,0x87,0xbf,0x07,0xff,0x8e,0x1f,0x7f
         FF 00 87 00
         FF 00 87 00
         FE 00 07 00
         FF 00 87 00
         BF 00 07 00
         FF 00 8E 00
         1F 00 7F 00
0000AB09 FF 00 8E 00        	.dw  0xff,0x8e,0x0f,0x63,0xff,0x87,0x1f,0x03,0xff,0x83,0xff,0x03,0xfd,0x83,0xfe,0x03
         0F 00 63 00
         FF 00 87 00
         1F 00 03 00
         FF 00 83 00
         FF 00 03 00
         FD 00 83 00
         FE 00 03 00
0000AB19 FD 00 83 00        	.dw  0xfd,0x83,0xfe,0xc3,0xfe,0x83,0xfd,0xc3,0xff,0x83,0xfb,0xc3,0xff,0x07,0xf7,0xe3
         FE 00 C3 00
         FE 00 83 00
         FD 00 C3 00
         FF 00 83 00
         FB 00 C3 00
         FF 00 07 00
         F7 00 E3 00
0000AB29 FF 00 9F 00        	.dw  0xff,0x9f,0x8f,0xe3,0xff,0x80,0x7f,0xff,0xff,0xbe,0x7f,0xff,0xff,0xf8,0x7f,0xff
         8F 00 E3 00
         FF 00 80 00
         7F 00 FF 00
         FF 00 BE 00
         7F 00 FF 00
         FF 00 F8 00
         7F 00 FF 00
0000AB39 FF 00 F8 00        	.dw  0xff,0xf8,0x3f,0xff,0xff,0xf1,0x3f,0xff,0xff,0xf1,0x3f,0xff,0xff,0xf8,0x3f,0xff
         3F 00 FF 00
         FF 00 F1 00
         3F 00 FF 00
         FF 00 F1 00
         3F 00 FF 00
         FF 00 F8 00
         3F 00 FF 00
                            	//Sunnorth code.
                            	//Written by: Bai-yawei.
                            	//dance8.BM_
                            	//width=32(4byte)		height=32
                            	.public  _dance8
                            	_dance8:
0000AB49 49 AB 04 00        	.dw  _dance8,4,32
         20 00      
                            	
0000AB4C FF 00 CF 00        	.dw  0xff,0xcf,0xff,0xff,0xff,0x0f,0xff,0xff,0xfe,0x4f,0xff,0xff,0xfe,0x4f,0xff,0xff
         FF 00 FF 00
         FF 00 0F 00
         FF 00 FF 00
         FE 00 4F 00
         FF 00 FF 00
         FE 00 4F 00
         FF 00 FF 00
0000AB5C FE 00 0F 00        	.dw  0xfe,0x0f,0xff,0xff,0xfe,0x0f,0xff,0xff,0xff,0xef,0xff,0xff,0xfe,0xef,0xff,0xff
         FF 00 FF 00
         FE 00 0F 00
         FF 00 FF 00
         FF 00 EF 00
         FF 00 FF 00
         FE 00 EF 00
         FF 00 FF 00
0000AB6C FE 00 6F 00        	.dw  0xfe,0x6f,0xff,0xc7,0xfe,0x1f,0xff,0xc7,0xfe,0x0f,0xff,0xc7,0xfe,0x0f,0xff,0x87
         FF 00 C7 00
         FE 00 1F 00
         FF 00 C7 00
         FE 00 0F 00
         FF 00 C7 00
         FE 00 0F 00
         FF 00 87 00
0000AB7C FE 00 0E 00        	.dw  0xfe,0x0e,0xff,0x87,0xfe,0x18,0x78,0x07,0xfe,0x18,0x3d,0x03,0xfe,0x3c,0x7d,0x03
         FF 00 87 00
         FE 00 18 00
         78 00 07 00
         FE 00 18 00
         3D 00 03 00
         FE 00 3C 00
         7D 00 03 00
0000AB8C FE 00 3F 00        	.dw  0xfe,0x3f,0xfd,0xc3,0xfe,0x1f,0xfd,0xc3,0xfe,0x0f,0xfd,0xc3,0xf6,0x0f,0xf8,0x03
         FD 00 C3 00
         FE 00 1F 00
         FD 00 C3 00
         FE 00 0F 00
         FD 00 C3 00
         F6 00 0F 00
         F8 00 03 00
0000AB9C F6 00 0F 00        	.dw  0xf6,0x0f,0xfb,0x83,0xfa,0x0f,0xf7,0x83,0xfe,0x0f,0xef,0xe3,0xfc,0x1f,0xdf,0xff
         FB 00 83 00
         FA 00 0F 00
         F7 00 83 00
         FE 00 0F 00
         EF 00 E3 00
         FC 00 1F 00
         DF 00 FF 00
0000ABAC FE 00 7E 00        	.dw  0xfe,0x7e,0x3f,0xff,0xfe,0x01,0xff,0xff,0xfe,0xf8,0x7f,0xff,0xff,0xfc,0x1f,0xff
         3F 00 FF 00
         FE 00 01 00
         FF 00 FF 00
         FE 00 F8 00
         7F 00 FF 00
         FF 00 FC 00
         1F 00 FF 00
0000ABBC FF 00 FE 00        	.dw  0xff,0xfe,0x0f,0xff,0xff,0xfc,0x4f,0xff,0xff,0xfc,0x4f,0xff,0xff,0xfe,0x0f,0xff
         0F 00 FF 00
         FF 00 FC 00
         4F 00 FF 00
         FF 00 FC 00
         4F 00 FF 00
         FF 00 FE 00
         0F 00 FF 00
                            	
                            	//Sunnorth code.
                            	//Written by: Bai-yawei.
                            	//0.BM_
                            	//width=32(4byte)		height=48
                            	.public  _m0
                            	_m0:
0000ABCC CC AB 04 00        	.dw  _m0,4,48
         30 00      
                            	
0000ABCF 00 00 00 00        	.dw  00,0x00,0x00,0x00,0x00,0x00,0x00,0x00,0x00,0x08,0x20,0x00,0x00,0x08,0x70,0x00
         00 00 00 00
         00 00 00 00
         00 00 00 00
         00 00 08 00
         20 00 00 00
         00 00 08 00
         70 00 00 00
0000ABDF 00 00 04 00        	.dw  00,0x04,0xf0,0x00,0x00,0x13,0xf0,0x00,0x00,0x1f,0xf8,0xc0,0x00,0x01,0xf8,0xb8
         F0 00 00 00
         00 00 13 00
         F0 00 00 00
         00 00 1F 00
         F8 00 C0 00
         00 00 01 00
         F8 00 B8 00
0000ABEF 00 00 01 00        	.dw  00,0x01,0x78,0x88,0x00,0x01,0x79,0x08,0x00,0x01,0x39,0x00,0x00,0x01,0xf9,0x00
         78 00 88 00
         00 00 01 00
         79 00 08 00
         00 00 01 00
         39 00 00 00
         00 00 01 00
         F9 00 00 00
0000ABFF 00 00 00 00        	.dw  00,0x00,0xf2,0x00,0x00,0x00,0xf2,0x70,0x00,0x00,0x62,0x4e,0x00,0x00,0x8e,0x82
         F2 00 00 00
         00 00 00 00
         F2 00 70 00
         00 00 00 00
         62 00 4E 00
         00 00 00 00
         8E 00 82 00
0000AC0F 00 00 00 00        	.dw  00,0x00,0x7f,0x82,0x00,0x00,0x3f,0x02,0x00,0x00,0x5f,0x00,0x00,0x00,0x3f,0x80
         7F 00 82 00
         00 00 00 00
         3F 00 02 00
         00 00 00 00
         5F 00 00 00
         00 00 00 00
         3F 00 80 00
0000AC1F 00 00 00 00        	.dw  00,0x00,0x5f,0x40,0x00,0x00,0x9f,0x40,0x00,0x01,0x2e,0x40,0x00,0x00,0xc0,0x00
         5F 00 40 00
         00 00 00 00
         9F 00 40 00
         00 00 01 00
         2E 00 40 00
         00 00 00 00
         C0 00 00 00
0000AC2F 00 00 00 00        	.dw  00,0x00,0xb0,0x00,0x00,0x01,0xcc,0x00,0x00,0x02,0xfb,0x00,0x00,0x04,0xfc,0xc0
         B0 00 00 00
         00 00 01 00
         CC 00 00 00
         00 00 02 00
         FB 00 00 00
         00 00 04 00
         FC 00 C0 00
0000AC3F 00 00 08 00        	.dw  00,0x08,0xfe,0x30,0x00,0x05,0xfe,0x0c,0x00,0x03,0xfe,0x02,0x00,0x01,0xff,0x02
         FE 00 30 00
         00 00 05 00
         FE 00 0C 00
         00 00 03 00
         FE 00 02 00
         00 00 01 00
         FF 00 02 00
0000AC4F 00 00 01 00        	.dw  00,0x01,0xff,0x02,0x00,0x01,0xff,0x00,0x00,0x01,0xff,0x00,0x00,0x01,0xff,0x00
         FF 00 02 00
         00 00 01 00
         FF 00 00 00
         00 00 01 00
         FF 00 00 00
         00 00 01 00
         FF 00 00 00
0000AC5F 00 00 01 00        	.dw  00,0x01,0xff,0x00,0x00,0x01,0xff,0x00,0x00,0x01,0xff,0x80,0x00,0x00,0xfe,0x7c
         FF 00 00 00
         00 00 01 00
         FF 00 00 00
         00 00 01 00
         FF 00 80 00
         00 00 00 00
         FE 00 7C 00
0000AC6F 00 00 00 00        	.dw  00,0x00,0xfe,0x04,0x00,0x00,0xfe,0x04,0x00,0x00,0x7c,0x02,0x00,0x00,0x38,0x00
         FE 00 04 00
         00 00 00 00
         FE 00 04 00
         00 00 00 00
         7C 00 02 00
         00 00 00 00
         38 00 00 00
0000AC7F 00 00 00 00        	.dw  00,0x00,0x00,0x00,0x00,0x00,0x00,0x00,0x00,0x00,0x00,0x00,0x00,0x00,0x00,0x00
         00 00 00 00
         00 00 00 00
         00 00 00 00
         00 00 00 00
         00 00 00 00
         00 00 00 00
         00 00 00 00
                            	//Sunnorth code.
                            	//Written by: Bai-yawei.
                            	//1.BM_
                            	//width=32(4byte)		height=48
                            	.public  _m1
                            	_m1:
0000AC8F 8F AC 04 00        	.dw  _m1,4,48
         30 00      
                            	
0000AC92 00 00 00 00        	.dw  00,0x00,0x00,0x00,0x00,0x00,0x00,0x00,0x00,0x0e,0x20,0x00,0x00,0x02,0x70,0x00
         00 00 00 00
         00 00 00 00
         00 00 00 00
         00 00 0E 00
         20 00 00 00
         00 00 02 00
         70 00 00 00
0000ACA2 00 00 02 00        	.dw  00,0x02,0xf0,0x00,0x00,0x1b,0xf0,0x00,0x00,0x17,0xf8,0x10,0x00,0x01,0xf8,0x70
         F0 00 00 00
         00 00 1B 00
         F0 00 00 00
         00 00 17 00
         F8 00 10 00
         00 00 01 00
         F8 00 70 00
0000ACB2 00 00 01 00        	.dw  00,0x01,0x78,0x90,0x00,0x01,0x79,0x08,0x00,0x01,0x39,0x00,0x00,0x01,0xf9,0x00
         78 00 90 00
         00 00 01 00
         79 00 08 00
         00 00 01 00
         39 00 00 00
         00 00 01 00
         F9 00 00 00
0000ACC2 00 00 00 00        	.dw  00,0x00,0xf2,0x10,0x00,0x00,0xf2,0x28,0x00,0x00,0x62,0x44,0x00,0x00,0x8e,0x84
         F2 00 10 00
         00 00 00 00
         F2 00 28 00
         00 00 00 00
         62 00 44 00
         00 00 00 00
         8E 00 84 00
0000ACD2 00 00 00 00        	.dw  00,0x00,0x7f,0x80,0x00,0x00,0x3f,0x00,0x00,0x00,0x5f,0x00,0x00,0x00,0x3f,0x80
         7F 00 80 00
         00 00 00 00
         3F 00 00 00
         00 00 00 00
         5F 00 00 00
         00 00 00 00
         3F 00 80 00
0000ACE2 00 00 00 00        	.dw  00,0x00,0x5f,0x40,0x00,0x00,0x9f,0x40,0x00,0x01,0x2e,0x40,0x00,0x00,0xc0,0x00
         5F 00 40 00
         00 00 00 00
         9F 00 40 00
         00 00 01 00
         2E 00 40 00
         00 00 00 00
         C0 00 00 00
0000ACF2 00 00 00 00        	.dw  00,0x00,0xb0,0x00,0x00,0x01,0x0c,0x00,0x00,0x02,0x7b,0x00,0x00,0x04,0xfc,0xc0
         B0 00 00 00
         00 00 01 00
         0C 00 00 00
         00 00 02 00
         7B 00 00 00
         00 00 04 00
         FC 00 C0 00
0000AD02 00 00 08 00        	.dw  00,0x08,0xfe,0x30,0x00,0x05,0xfe,0x0c,0x00,0x03,0xfe,0x04,0x00,0x01,0xff,0x04
         FE 00 30 00
         00 00 05 00
         FE 00 0C 00
         00 00 03 00
         FE 00 04 00
         00 00 01 00
         FF 00 04 00
0000AD12 00 00 01 00        	.dw  00,0x01,0xff,0x02,0x00,0x01,0xff,0x00,0x00,0x01,0xff,0x00,0x00,0x01,0xff,0x00
         FF 00 02 00
         00 00 01 00
         FF 00 00 00
         00 00 01 00
         FF 00 00 00
         00 00 01 00
         FF 00 00 00
0000AD22 00 00 01 00        	.dw  00,0x01,0xff,0x00,0x00,0x01,0xff,0x00,0x00,0x01,0xff,0x80,0x00,0x00,0xfe,0x60
         FF 00 00 00
         00 00 01 00
         FF 00 00 00
         00 00 01 00
         FF 00 80 00
         00 00 00 00
         FE 00 60 00
0000AD32 00 00 00 00        	.dw  00,0x00,0xfe,0x10,0x00,0x00,0xfe,0x08,0x00,0x00,0x7c,0x08,0x00,0x00,0x38,0x04
         FE 00 10 00
         00 00 00 00
         FE 00 08 00
         00 00 00 00
         7C 00 08 00
         00 00 00 00
         38 00 04 00
0000AD42 00 00 00 00        	.dw  00,0x00,0x00,0x00,0x00,0x00,0x00,0x00,0x00,0x00,0x00,0x00,0x00,0x00,0x00,0x00
         00 00 00 00
         00 00 00 00
         00 00 00 00
         00 00 00 00
         00 00 00 00
         00 00 00 00
         00 00 00 00
                            	//Sunnorth code.
                            	//Written by: Bai-yawei.
                            	//2.BM_
                            	//width=32(4byte)		height=48
                            	.public  _m2
                            	_m2:
0000AD52 52 AD 04 00        	.dw  _m2,4,48
         30 00      
                            	
0000AD55 00 00 00 00        	.dw  00,0x00,0x00,0x00,0x00,0x00,0x00,0x00,0x00,0x08,0x20,0x00,0x00,0x08,0x70,0x00
         00 00 00 00
         00 00 00 00
         00 00 00 00
         00 00 08 00
         20 00 00 00
         00 00 08 00
         70 00 00 00
0000AD65 00 00 04 00        	.dw  00,0x04,0xf0,0x00,0x00,0x13,0xf0,0x10,0x00,0x1f,0xf8,0x28,0x00,0x01,0xf8,0x48
         F0 00 00 00
         00 00 13 00
         F0 00 10 00
         00 00 1F 00
         F8 00 28 00
         00 00 01 00
         F8 00 48 00
0000AD75 00 00 01 00        	.dw  00,0x01,0x78,0x80,0x00,0x01,0x79,0x00,0x00,0x01,0x39,0x00,0x00,0x01,0xf9,0x00
         78 00 80 00
         00 00 01 00
         79 00 00 00
         00 00 01 00
         39 00 00 00
         00 00 01 00
         F9 00 00 00
0000AD85 00 00 00 00        	.dw  00,0x00,0xf2,0x18,0x00,0x00,0xf2,0x24,0x00,0x00,0x62,0x44,0x00,0x00,0x8e,0x82
         F2 00 18 00
         00 00 00 00
         F2 00 24 00
         00 00 00 00
         62 00 44 00
         00 00 00 00
         8E 00 82 00
0000AD95 00 00 00 00        	.dw  00,0x00,0x7f,0x80,0x00,0x00,0x3f,0x00,0x00,0x00,0x5f,0x00,0x00,0x00,0x3f,0x80
         7F 00 80 00
         00 00 00 00
         3F 00 00 00
         00 00 00 00
         5F 00 00 00
         00 00 00 00
         3F 00 80 00
0000ADA5 00 00 00 00        	.dw  00,0x00,0x5f,0x40,0x00,0x00,0x9f,0x20,0x00,0x01,0x2e,0x20,0x00,0x00,0xc0,0x00
         5F 00 40 00
         00 00 00 00
         9F 00 20 00
         00 00 01 00
         2E 00 20 00
         00 00 00 00
         C0 00 00 00
0000ADB5 00 00 00 00        	.dw  00,0x00,0xb8,0x00,0x00,0x01,0x06,0x00,0x00,0x02,0x79,0x80,0x00,0x04,0xfc,0x78
         B8 00 00 00
         00 00 01 00
         06 00 00 00
         00 00 02 00
         79 00 80 00
         00 00 04 00
         FC 00 78 00
0000ADC5 00 00 08 00        	.dw  00,0x08,0xfe,0x04,0x00,0x07,0xfe,0x02,0x00,0x01,0xfe,0x00,0x00,0x01,0xff,0x00
         FE 00 04 00
         00 00 07 00
         FE 00 02 00
         00 00 01 00
         FE 00 00 00
         00 00 01 00
         FF 00 00 00
0000ADD5 00 00 01 00        	.dw  00,0x01,0xff,0x00,0x00,0x01,0xff,0x80,0x00,0x01,0xff,0x60,0x00,0x01,0xff,0x10
         FF 00 00 00
         00 00 01 00
         FF 00 80 00
         00 00 01 00
         FF 00 60 00
         00 00 01 00
         FF 00 10 00
0000ADE5 00 00 01 00        	.dw  00,0x01,0xff,0x10,0x00,0x01,0xff,0x10,0x00,0x01,0xff,0x00,0x00,0x00,0xfe,0x00
         FF 00 10 00
         00 00 01 00
         FF 00 10 00
         00 00 01 00
         FF 00 00 00
         00 00 00 00
         FE 00 00 00
0000ADF5 00 00 00 00        	.dw  00,0x00,0xfe,0x00,0x00,0x00,0xfe,0x00,0x00,0x00,0x7c,0x00,0x00,0x00,0x38,0x00
         FE 00 00 00
         00 00 00 00
         FE 00 00 00
         00 00 00 00
         7C 00 00 00
         00 00 00 00
         38 00 00 00
0000AE05 00 00 00 00        	.dw  00,0x00,0x00,0x00,0x00,0x00,0x00,0x00,0x00,0x00,0x00,0x00,0x00,0x00,0x00,0x00
         00 00 00 00
         00 00 00 00
         00 00 00 00
         00 00 00 00
         00 00 00 00
         00 00 00 00
         00 00 00 00
                            	
                            	//;Sunnorth code.
                            	//;Written by: Bai-yawei.
                            	//;w1.BM_   welcome
                            	//;width=16(2byte)		height=60
                            	.public  _w1
                            	_w1:
0000AE15 15 AE 02 00        	.dw  _w1,2,77,0x00,0x00
         4D 00 00 00
         00 00      
0000AE1A 00 00 00 00        	.dw  0x00,0x00,0x00,0xc8,0x01,0xcc,0x03,0x46,0x02,0x42,0x02,0x42,0x02,0x42,0x03,0x46
         00 00 C8 00
         01 00 CC 00
         03 00 46 00
         02 00 42 00
         02 00 42 00
         02 00 42 00
         03 00 46 00
0000AE2A 01 00 FC 00        	.dw  0x01,0xfc,0x00,0x32,0x03,0xfe,0x03,0xfe,0x02,0x02,0x03,0x02,0x03,0xfe,0x03,0xfe
         00 00 32 00
         03 00 FE 00
         03 00 FE 00
         02 00 02 00
         03 00 02 00
         03 00 FE 00
         03 00 FE 00
0000AE3A 02 00 02 00        	.dw  0x02,0x02,0x03,0x02,0x03,0xfe,0x03,0xfe,0x02,0x02,0x00,0x00,0x00,0xf8,0x01,0xfc
         03 00 02 00
         03 00 FE 00
         03 00 FE 00
         02 00 02 00
         00 00 00 00
         00 00 F8 00
         01 00 FC 00
0000AE4A 03 00 06 00        	.dw  0x03,0x06,0x02,0x02,0x02,0x02,0x02,0x02,0x03,0x06,0x01,0xfc,0x00,0xf8,0x00,0x00
         02 00 02 00
         02 00 02 00
         02 00 02 00
         03 00 06 00
         01 00 FC 00
         00 00 F8 00
         00 00 00 00
0000AE5A 00 00 00 00        	.dw  0x00,0x00,0x00,0x08,0x01,0x8c,0x03,0x86,0x02,0x02,0x02,0x02,0x02,0x02,0x03,0x06
         00 00 08 00
         01 00 8C 00
         03 00 86 00
         02 00 02 00
         02 00 02 00
         02 00 02 00
         03 00 06 00
0000AE6A 01 00 FC 00        	.dw  0x01,0xfc,0x00,0xf8,0x00,0x00,0x00,0x00,0x00,0x02,0x00,0x02,0x00,0x02,0x7f,0xfe
         00 00 F8 00
         00 00 00 00
         00 00 00 00
         00 00 02 00
         00 00 02 00
         00 00 02 00
         7F 00 FE 00
0000AE7A 7F 00 FE 00        	.dw  0x7f,0xfe,0x40,0x02,0x40,0x02,0x40,0x02,0x00,0x00,0x00,0x00,0x00,0x00,0x00,0xc8
         40 00 02 00
         40 00 02 00
         40 00 02 00
         00 00 00 00
         00 00 00 00
         00 00 00 00
         00 00 C8 00
0000AE8A 01 00 CC 00        	.dw  0x01,0xcc,0x03,0x46,0x02,0x42,0x02,0x42,0x02,0x42,0x03,0x46,0x01,0xfc,0x00,0xf8
         03 00 46 00
         02 00 42 00
         02 00 42 00
         02 00 42 00
         03 00 46 00
         01 00 FC 00
         00 00 F8 00
0000AE9A 02 00 00 00        	.dw  0x02,0x00,0x03,0x80,0x03,0xf8,0x00,0xfe,0x00,0x1e,0x03,0xf8,0x03,0xf8,0x00,0x1e
         03 00 80 00
         03 00 F8 00
         00 00 FE 00
         00 00 1E 00
         03 00 F8 00
         03 00 F8 00
         00 00 1E 00
0000AEAA 00 00 7E 00        	.dw  0x00,0x7e,0x03,0xf8,0x03,0x80,0x02,0x00,0x00,0x00
         03 00 F8 00
         03 00 80 00
         02 00 00 00
         00 00 00 00
                            	
                            	
0 error(s), 0 warning(s).

